
---------- Begin Simulation Statistics ----------
final_tick                                76789090000                       # Number of ticks from beginning of simulation (restored from checkpoints and never reset)
host_inst_rate                                 824223                       # Simulator instruction rate (inst/s)
host_mem_usage                                 681284                       # Number of bytes of host memory used
host_op_rate                                  1381940                       # Simulator op (including micro ops) rate (op/s)
host_seconds                                    56.51                       # Real time elapsed on the host
host_tick_rate                             1358864910                       # Simulator tick rate (ticks/s)
sim_freq                                 1000000000000                       # Frequency of simulated ticks
sim_insts                                    46576534                       # Number of instructions simulated
sim_ops                                      78093026                       # Number of ops (including micro ops) simulated
sim_seconds                                  0.076789                       # Number of seconds simulated
sim_ticks                                 76789090000                       # Number of ticks simulated
system.cpu.Branches                           6851974                       # Number of branches fetched
system.cpu.committedInsts                    46576534                       # Number of instructions committed
system.cpu.committedOps                      78093026                       # Number of ops (including micro ops) committed
system.cpu.dtb.rdAccesses                    13698424                       # TLB accesses on read requests
system.cpu.dtb.rdMisses                            13                       # TLB misses on read requests
system.cpu.dtb.wrAccesses                     5481832                       # TLB accesses on write requests
system.cpu.dtb.wrMisses                             9                       # TLB misses on write requests
system.cpu.idle_fraction                     0.000000                       # Percentage of idle cycles
system.cpu.itb.rdAccesses                           0                       # TLB accesses on read requests
system.cpu.itb.rdMisses                             0                       # TLB misses on read requests
system.cpu.itb.wrAccesses                    57538145                       # TLB accesses on write requests
system.cpu.itb.wrMisses                            48                       # TLB misses on write requests
system.cpu.not_idle_fraction                 1.000000                       # Percentage of non-idle cycles
system.cpu.numCycles                        153578180                       # number of cpu cycles simulated
system.cpu.numWorkItemsCompleted                    0                       # number of work items this cpu completed
system.cpu.numWorkItemsStarted                      0                       # number of work items this cpu started
system.cpu.num_busy_cycles               153578179.998000                       # Number of busy cycles
system.cpu.num_cc_register_reads             26041561                       # number of times the CC registers were read
system.cpu.num_cc_register_writes            16446004                       # number of times the CC registers were written
system.cpu.num_conditional_control_insts      4112122                       # number of instructions that are conditional controls
system.cpu.num_fp_alu_accesses                   2071                       # Number of float alu accesses
system.cpu.num_fp_insts                          2071                       # number of float instructions
system.cpu.num_fp_register_reads                 3981                       # number of times the floating registers were read
system.cpu.num_fp_register_writes                1590                       # number of times the floating registers were written
system.cpu.num_func_calls                     2739154                       # number of times a function call or return occured
system.cpu.num_idle_cycles                   0.002000                       # Number of idle cycles
system.cpu.num_int_alu_accesses              78091217                       # Number of integer alu accesses
system.cpu.num_int_insts                     78091217                       # number of integer instructions
system.cpu.num_int_register_reads           178083162                       # number of times the integer registers were read
system.cpu.num_int_register_writes           65757491                       # number of times the integer registers were written
system.cpu.num_load_insts                    13698419                       # Number of load instructions
system.cpu.num_mem_refs                      19180250                       # number of memory refs
system.cpu.num_store_insts                    5481831                       # Number of store instructions
system.cpu.num_vec_alu_accesses                     0                       # Number of vector alu accesses
system.cpu.num_vec_insts                            0                       # number of vector instructions
system.cpu.num_vec_register_reads                   0                       # number of times the vector registers were read
system.cpu.num_vec_register_writes                  0                       # number of times the vector registers were written
system.cpu.op_class::No_OpClass                   114      0.00%      0.00% # Class of executed instruction
system.cpu.op_class::IntAlu                  58911567     75.44%     75.44% # Class of executed instruction
system.cpu.op_class::IntMult                       11      0.00%     75.44% # Class of executed instruction
system.cpu.op_class::IntDiv                        28      0.00%     75.44% # Class of executed instruction
system.cpu.op_class::FloatAdd                      14      0.00%     75.44% # Class of executed instruction
system.cpu.op_class::FloatCmp                       0      0.00%     75.44% # Class of executed instruction
system.cpu.op_class::FloatCvt                       0      0.00%     75.44% # Class of executed instruction
system.cpu.op_class::FloatMult                      0      0.00%     75.44% # Class of executed instruction
system.cpu.op_class::FloatMultAcc                   0      0.00%     75.44% # Class of executed instruction
system.cpu.op_class::FloatDiv                       0      0.00%     75.44% # Class of executed instruction
system.cpu.op_class::FloatMisc                      0      0.00%     75.44% # Class of executed instruction
system.cpu.op_class::FloatSqrt                      0      0.00%     75.44% # Class of executed instruction
system.cpu.op_class::SimdAdd                      374      0.00%     75.44% # Class of executed instruction
system.cpu.op_class::SimdAddAcc                     0      0.00%     75.44% # Class of executed instruction
system.cpu.op_class::SimdAlu                       92      0.00%     75.44% # Class of executed instruction
system.cpu.op_class::SimdCmp                        0      0.00%     75.44% # Class of executed instruction
system.cpu.op_class::SimdCvt                      132      0.00%     75.44% # Class of executed instruction
system.cpu.op_class::SimdMisc                     258      0.00%     75.44% # Class of executed instruction
system.cpu.op_class::SimdMult                       0      0.00%     75.44% # Class of executed instruction
system.cpu.op_class::SimdMultAcc                    0      0.00%     75.44% # Class of executed instruction
system.cpu.op_class::SimdShift                    186      0.00%     75.44% # Class of executed instruction
system.cpu.op_class::SimdShiftAcc                   0      0.00%     75.44% # Class of executed instruction
system.cpu.op_class::SimdDiv                        0      0.00%     75.44% # Class of executed instruction
system.cpu.op_class::SimdSqrt                       0      0.00%     75.44% # Class of executed instruction
system.cpu.op_class::SimdFloatAdd                   0      0.00%     75.44% # Class of executed instruction
system.cpu.op_class::SimdFloatAlu                   0      0.00%     75.44% # Class of executed instruction
system.cpu.op_class::SimdFloatCmp                   0      0.00%     75.44% # Class of executed instruction
system.cpu.op_class::SimdFloatCvt                   0      0.00%     75.44% # Class of executed instruction
system.cpu.op_class::SimdFloatDiv                   0      0.00%     75.44% # Class of executed instruction
system.cpu.op_class::SimdFloatMisc                  0      0.00%     75.44% # Class of executed instruction
system.cpu.op_class::SimdFloatMult                  0      0.00%     75.44% # Class of executed instruction
system.cpu.op_class::SimdFloatMultAcc               0      0.00%     75.44% # Class of executed instruction
system.cpu.op_class::SimdFloatSqrt                  0      0.00%     75.44% # Class of executed instruction
system.cpu.op_class::SimdReduceAdd                  0      0.00%     75.44% # Class of executed instruction
system.cpu.op_class::SimdReduceAlu                  0      0.00%     75.44% # Class of executed instruction
system.cpu.op_class::SimdReduceCmp                  0      0.00%     75.44% # Class of executed instruction
system.cpu.op_class::SimdFloatReduceAdd             0      0.00%     75.44% # Class of executed instruction
system.cpu.op_class::SimdFloatReduceCmp             0      0.00%     75.44% # Class of executed instruction
system.cpu.op_class::SimdAes                        0      0.00%     75.44% # Class of executed instruction
system.cpu.op_class::SimdAesMix                     0      0.00%     75.44% # Class of executed instruction
system.cpu.op_class::SimdSha1Hash                   0      0.00%     75.44% # Class of executed instruction
system.cpu.op_class::SimdSha1Hash2                  0      0.00%     75.44% # Class of executed instruction
system.cpu.op_class::SimdSha256Hash                 0      0.00%     75.44% # Class of executed instruction
system.cpu.op_class::SimdSha256Hash2                0      0.00%     75.44% # Class of executed instruction
system.cpu.op_class::SimdShaSigma2                  0      0.00%     75.44% # Class of executed instruction
system.cpu.op_class::SimdShaSigma3                  0      0.00%     75.44% # Class of executed instruction
system.cpu.op_class::SimdPredAlu                    0      0.00%     75.44% # Class of executed instruction
system.cpu.op_class::MemRead                 13698345     17.54%     92.98% # Class of executed instruction
system.cpu.op_class::MemWrite                 5481414      7.02%    100.00% # Class of executed instruction
system.cpu.op_class::FloatMemRead                  74      0.00%    100.00% # Class of executed instruction
system.cpu.op_class::FloatMemWrite                417      0.00%    100.00% # Class of executed instruction
system.cpu.op_class::IprAccess                      0      0.00%    100.00% # Class of executed instruction
system.cpu.op_class::InstPrefetch                   0      0.00%    100.00% # Class of executed instruction
system.cpu.op_class::total                   78093026                       # Class of executed instruction
system.cpu.workload.numSyscalls                   184                       # Number of system calls
system.membus.snoop_filter.hit_multi_requests            0                       # Number of requests hitting in the snoop filter with multiple (>1) holders of the requested data.
system.membus.snoop_filter.hit_multi_snoops            0                       # Number of snoops hitting in the snoop filter with multiple (>1) holders of the requested data.
system.membus.snoop_filter.hit_single_requests          699                       # Number of requests hitting in the snoop filter with a single holder of the requested data.
system.membus.snoop_filter.hit_single_snoops            0                       # Number of snoops hitting in the snoop filter with a single holder of the requested data.
system.membus.snoop_filter.tot_requests          1861                       # Total number of requests made to the snoop filter.
system.membus.snoop_filter.tot_snoops               0                       # Total number of snoops made to the snoop filter.
system.membus.pwrStateResidencyTicks::UNDEFINED  76789090000                       # Cumulative time (in ticks) in various power states
system.membus.trans_dist::ReadResp               1032                       # Transaction distribution
system.membus.trans_dist::WritebackDirty            1                       # Transaction distribution
system.membus.trans_dist::WritebackClean          697                       # Transaction distribution
system.membus.trans_dist::CleanEvict                1                       # Transaction distribution
system.membus.trans_dist::ReadExReq               130                       # Transaction distribution
system.membus.trans_dist::ReadExResp              130                       # Transaction distribution
system.membus.trans_dist::ReadCleanReq            761                       # Transaction distribution
system.membus.trans_dist::ReadSharedReq           271                       # Transaction distribution
system.membus.pkt_count_system.cpu.icache.mem_side::system.mem_ctrls.port         2219                       # Packet count per connected master and slave (bytes)
system.membus.pkt_count_system.cpu.icache.mem_side::total         2219                       # Packet count per connected master and slave (bytes)
system.membus.pkt_count_system.cpu.dcache.mem_side::system.mem_ctrls.port          804                       # Packet count per connected master and slave (bytes)
system.membus.pkt_count_system.cpu.dcache.mem_side::total          804                       # Packet count per connected master and slave (bytes)
system.membus.pkt_count::total                   3023                       # Packet count per connected master and slave (bytes)
system.membus.pkt_size_system.cpu.icache.mem_side::system.mem_ctrls.port        93312                       # Cumulative packet size per connected master and slave (bytes)
system.membus.pkt_size_system.cpu.icache.mem_side::total        93312                       # Cumulative packet size per connected master and slave (bytes)
system.membus.pkt_size_system.cpu.dcache.mem_side::system.mem_ctrls.port        25728                       # Cumulative packet size per connected master and slave (bytes)
system.membus.pkt_size_system.cpu.dcache.mem_side::total        25728                       # Cumulative packet size per connected master and slave (bytes)
system.membus.pkt_size::total                  119040                       # Cumulative packet size per connected master and slave (bytes)
system.membus.snoops                                0                       # Total snoops (count)
system.membus.snoopTraffic                          0                       # Total snoop traffic (bytes)
system.membus.snoop_fanout::samples              1162                       # Request fanout histogram
system.membus.snoop_fanout::mean                    0                       # Request fanout histogram
system.membus.snoop_fanout::stdev                   0                       # Request fanout histogram
system.membus.snoop_fanout::underflows              0      0.00%      0.00% # Request fanout histogram
system.membus.snoop_fanout::0                    1162    100.00%    100.00% # Request fanout histogram
system.membus.snoop_fanout::1                       0      0.00%    100.00% # Request fanout histogram
system.membus.snoop_fanout::2                       0      0.00%    100.00% # Request fanout histogram
system.membus.snoop_fanout::3                       0      0.00%    100.00% # Request fanout histogram
system.membus.snoop_fanout::4                       0      0.00%    100.00% # Request fanout histogram
system.membus.snoop_fanout::overflows               0      0.00%    100.00% # Request fanout histogram
system.membus.snoop_fanout::min_value               0                       # Request fanout histogram
system.membus.snoop_fanout::max_value               0                       # Request fanout histogram
system.membus.snoop_fanout::total                1162                       # Request fanout histogram
system.membus.reqLayer2.occupancy             4653500                       # Layer occupancy (ticks)
system.membus.reqLayer2.utilization               0.0                       # Layer utilization (%)
system.membus.respLayer1.occupancy            4032500                       # Layer occupancy (ticks)
system.membus.respLayer1.utilization              0.0                       # Layer utilization (%)
system.membus.respLayer2.occupancy            2147250                       # Layer occupancy (ticks)
system.membus.respLayer2.utilization              0.0                       # Layer utilization (%)
system.voltage_domain.voltage                       1                       # Voltage in Volts
system.clk_domain.clock                          1000                       # Clock period in ticks
system.cpu_voltage_domain.voltage                   1                       # Voltage in Volts
system.mem_ctrls.pwrStateResidencyTicks::UNDEFINED  76789090000                       # Cumulative time (in ticks) in various power states
system.mem_ctrls.bytes_read::.cpu.inst          48704                       # Number of bytes read from this memory
system.mem_ctrls.bytes_read::.cpu.data          25664                       # Number of bytes read from this memory
system.mem_ctrls.bytes_read::total              74368                       # Number of bytes read from this memory
system.mem_ctrls.bytes_inst_read::.cpu.inst        48704                       # Number of instructions bytes read from this memory
system.mem_ctrls.bytes_inst_read::total         48704                       # Number of instructions bytes read from this memory
system.mem_ctrls.bytes_written::.writebacks           64                       # Number of bytes written to this memory
system.mem_ctrls.bytes_written::total              64                       # Number of bytes written to this memory
system.mem_ctrls.num_reads::.cpu.inst             761                       # Number of read requests responded to by this memory
system.mem_ctrls.num_reads::.cpu.data             401                       # Number of read requests responded to by this memory
system.mem_ctrls.num_reads::total                1162                       # Number of read requests responded to by this memory
system.mem_ctrls.num_writes::.writebacks            1                       # Number of write requests responded to by this memory
system.mem_ctrls.num_writes::total                  1                       # Number of write requests responded to by this memory
system.mem_ctrls.bw_read::.cpu.inst            634257                       # Total read bandwidth from this memory (bytes/s)
system.mem_ctrls.bw_read::.cpu.data            334214                       # Total read bandwidth from this memory (bytes/s)
system.mem_ctrls.bw_read::total                968471                       # Total read bandwidth from this memory (bytes/s)
system.mem_ctrls.bw_inst_read::.cpu.inst       634257                       # Instruction read bandwidth from this memory (bytes/s)
system.mem_ctrls.bw_inst_read::total           634257                       # Instruction read bandwidth from this memory (bytes/s)
system.mem_ctrls.bw_write::.writebacks            833                       # Write bandwidth from this memory (bytes/s)
system.mem_ctrls.bw_write::total                  833                       # Write bandwidth from this memory (bytes/s)
system.mem_ctrls.bw_total::.writebacks            833                       # Total bandwidth to/from this memory (bytes/s)
system.mem_ctrls.bw_total::.cpu.inst           634257                       # Total bandwidth to/from this memory (bytes/s)
system.mem_ctrls.bw_total::.cpu.data           334214                       # Total bandwidth to/from this memory (bytes/s)
system.mem_ctrls.bw_total::total               969304                       # Total bandwidth to/from this memory (bytes/s)
system.mem_ctrls.avgPriority_.writebacks::samples       691.00                       # Average QoS priority value for accepted requests
system.mem_ctrls.avgPriority_.cpu.inst::samples       712.00                       # Average QoS priority value for accepted requests
system.mem_ctrls.avgPriority_.cpu.data::samples       401.00                       # Average QoS priority value for accepted requests
system.mem_ctrls.priorityMinLatency      0.000000018750                       # per QoS priority minimum request to response latency (s)
system.mem_ctrls.priorityMaxLatency      0.153427057250                       # per QoS priority maximum request to response latency (s)
system.mem_ctrls.numReadWriteTurnArounds           41                       # Number of turnarounds from READ to WRITE
system.mem_ctrls.numWriteReadTurnArounds           41                       # Number of turnarounds from WRITE to READ
system.mem_ctrls.numStayReadState               22605                       # Number of times bus staying in READ state
system.mem_ctrls.numStayWriteState                620                       # Number of times bus staying in WRITE state
system.mem_ctrls.readReqs                        1162                       # Number of read requests accepted
system.mem_ctrls.writeReqs                        698                       # Number of write requests accepted
system.mem_ctrls.readBursts                      1162                       # Number of DRAM read bursts, including those serviced by the write queue
system.mem_ctrls.writeBursts                      698                       # Number of DRAM write bursts, including those merged in the write queue
system.mem_ctrls.servicedByWrQ                     49                       # Number of DRAM read bursts serviced by the write queue
system.mem_ctrls.mergedWrBursts                     7                       # Number of DRAM write bursts merged with an existing one
system.mem_ctrls.neitherReadNorWriteReqs            0                       # Number of requests that are neither read nor write
system.mem_ctrls.perBankRdBursts::0               193                       # Per bank write bursts
system.mem_ctrls.perBankRdBursts::1                83                       # Per bank write bursts
system.mem_ctrls.perBankRdBursts::2               136                       # Per bank write bursts
system.mem_ctrls.perBankRdBursts::3                 9                       # Per bank write bursts
system.mem_ctrls.perBankRdBursts::4                13                       # Per bank write bursts
system.mem_ctrls.perBankRdBursts::5                11                       # Per bank write bursts
system.mem_ctrls.perBankRdBursts::6                64                       # Per bank write bursts
system.mem_ctrls.perBankRdBursts::7                49                       # Per bank write bursts
system.mem_ctrls.perBankRdBursts::8                19                       # Per bank write bursts
system.mem_ctrls.perBankRdBursts::9                29                       # Per bank write bursts
system.mem_ctrls.perBankRdBursts::10               59                       # Per bank write bursts
system.mem_ctrls.perBankRdBursts::11               84                       # Per bank write bursts
system.mem_ctrls.perBankRdBursts::12               35                       # Per bank write bursts
system.mem_ctrls.perBankRdBursts::13              129                       # Per bank write bursts
system.mem_ctrls.perBankRdBursts::14              127                       # Per bank write bursts
system.mem_ctrls.perBankRdBursts::15               73                       # Per bank write bursts
system.mem_ctrls.perBankWrBursts::0               145                       # Per bank write bursts
system.mem_ctrls.perBankWrBursts::1                26                       # Per bank write bursts
system.mem_ctrls.perBankWrBursts::2                19                       # Per bank write bursts
system.mem_ctrls.perBankWrBursts::3                 8                       # Per bank write bursts
system.mem_ctrls.perBankWrBursts::4                11                       # Per bank write bursts
system.mem_ctrls.perBankWrBursts::5                10                       # Per bank write bursts
system.mem_ctrls.perBankWrBursts::6                64                       # Per bank write bursts
system.mem_ctrls.perBankWrBursts::7                36                       # Per bank write bursts
system.mem_ctrls.perBankWrBursts::8                21                       # Per bank write bursts
system.mem_ctrls.perBankWrBursts::9                26                       # Per bank write bursts
system.mem_ctrls.perBankWrBursts::10               49                       # Per bank write bursts
system.mem_ctrls.perBankWrBursts::11               53                       # Per bank write bursts
system.mem_ctrls.perBankWrBursts::12               10                       # Per bank write bursts
system.mem_ctrls.perBankWrBursts::13               33                       # Per bank write bursts
system.mem_ctrls.perBankWrBursts::14              117                       # Per bank write bursts
system.mem_ctrls.perBankWrBursts::15               33                       # Per bank write bursts
system.mem_ctrls.avgRdQLen                       1.00                       # Average read queue length when enqueuing
system.mem_ctrls.avgWrQLen                      20.98                       # Average write queue length when enqueuing
system.mem_ctrls.totQLat                     11216500                       # Total ticks spent queuing
system.mem_ctrls.totBusLat                    5565000                       # Total ticks spent in databus transfers
system.mem_ctrls.totMemAccLat                32085250                       # Total ticks spent from burst creation until serviced by the DRAM
system.mem_ctrls.avgQLat                     10077.72                       # Average queueing delay per DRAM burst
system.mem_ctrls.avgBusLat                    5000.00                       # Average bus latency per DRAM burst
system.mem_ctrls.avgMemAccLat                28827.72                       # Average memory access latency per DRAM burst
system.mem_ctrls.numRdRetry                         0                       # Number of times read queue was full causing retry
system.mem_ctrls.numWrRetry                         0                       # Number of times write queue was full causing retry
system.mem_ctrls.readRowHits                      825                       # Number of row buffer hits during reads
system.mem_ctrls.writeRowHits                     554                       # Number of row buffer hits during writes
system.mem_ctrls.readRowHitRate                 74.12                       # Row buffer hit rate for reads
system.mem_ctrls.writeRowHitRate                80.17                       # Row buffer hit rate for writes
system.mem_ctrls.readPktSize::0                     0                       # Read request sizes (log2)
system.mem_ctrls.readPktSize::1                     0                       # Read request sizes (log2)
system.mem_ctrls.readPktSize::2                     0                       # Read request sizes (log2)
system.mem_ctrls.readPktSize::3                     0                       # Read request sizes (log2)
system.mem_ctrls.readPktSize::4                     0                       # Read request sizes (log2)
system.mem_ctrls.readPktSize::5                     0                       # Read request sizes (log2)
system.mem_ctrls.readPktSize::6                  1162                       # Read request sizes (log2)
system.mem_ctrls.writePktSize::0                    0                       # Write request sizes (log2)
system.mem_ctrls.writePktSize::1                    0                       # Write request sizes (log2)
system.mem_ctrls.writePktSize::2                    0                       # Write request sizes (log2)
system.mem_ctrls.writePktSize::3                    0                       # Write request sizes (log2)
system.mem_ctrls.writePktSize::4                    0                       # Write request sizes (log2)
system.mem_ctrls.writePktSize::5                    0                       # Write request sizes (log2)
system.mem_ctrls.writePktSize::6                  698                       # Write request sizes (log2)
system.mem_ctrls.rdQLenPdf::0                    1113                       # What read queue length does an incoming req see
system.mem_ctrls.rdQLenPdf::1                       0                       # What read queue length does an incoming req see
system.mem_ctrls.rdQLenPdf::2                       0                       # What read queue length does an incoming req see
system.mem_ctrls.rdQLenPdf::3                       0                       # What read queue length does an incoming req see
system.mem_ctrls.rdQLenPdf::4                       0                       # What read queue length does an incoming req see
system.mem_ctrls.rdQLenPdf::5                       0                       # What read queue length does an incoming req see
system.mem_ctrls.rdQLenPdf::6                       0                       # What read queue length does an incoming req see
system.mem_ctrls.rdQLenPdf::7                       0                       # What read queue length does an incoming req see
system.mem_ctrls.rdQLenPdf::8                       0                       # What read queue length does an incoming req see
system.mem_ctrls.rdQLenPdf::9                       0                       # What read queue length does an incoming req see
system.mem_ctrls.rdQLenPdf::10                      0                       # What read queue length does an incoming req see
system.mem_ctrls.rdQLenPdf::11                      0                       # What read queue length does an incoming req see
system.mem_ctrls.rdQLenPdf::12                      0                       # What read queue length does an incoming req see
system.mem_ctrls.rdQLenPdf::13                      0                       # What read queue length does an incoming req see
system.mem_ctrls.rdQLenPdf::14                      0                       # What read queue length does an incoming req see
system.mem_ctrls.rdQLenPdf::15                      0                       # What read queue length does an incoming req see
system.mem_ctrls.rdQLenPdf::16                      0                       # What read queue length does an incoming req see
system.mem_ctrls.rdQLenPdf::17                      0                       # What read queue length does an incoming req see
system.mem_ctrls.rdQLenPdf::18                      0                       # What read queue length does an incoming req see
system.mem_ctrls.rdQLenPdf::19                      0                       # What read queue length does an incoming req see
system.mem_ctrls.rdQLenPdf::20                      0                       # What read queue length does an incoming req see
system.mem_ctrls.rdQLenPdf::21                      0                       # What read queue length does an incoming req see
system.mem_ctrls.rdQLenPdf::22                      0                       # What read queue length does an incoming req see
system.mem_ctrls.rdQLenPdf::23                      0                       # What read queue length does an incoming req see
system.mem_ctrls.rdQLenPdf::24                      0                       # What read queue length does an incoming req see
system.mem_ctrls.rdQLenPdf::25                      0                       # What read queue length does an incoming req see
system.mem_ctrls.rdQLenPdf::26                      0                       # What read queue length does an incoming req see
system.mem_ctrls.rdQLenPdf::27                      0                       # What read queue length does an incoming req see
system.mem_ctrls.rdQLenPdf::28                      0                       # What read queue length does an incoming req see
system.mem_ctrls.rdQLenPdf::29                      0                       # What read queue length does an incoming req see
system.mem_ctrls.rdQLenPdf::30                      0                       # What read queue length does an incoming req see
system.mem_ctrls.rdQLenPdf::31                      0                       # What read queue length does an incoming req see
system.mem_ctrls.wrQLenPdf::0                       1                       # What write queue length does an incoming req see
system.mem_ctrls.wrQLenPdf::1                       1                       # What write queue length does an incoming req see
system.mem_ctrls.wrQLenPdf::2                       1                       # What write queue length does an incoming req see
system.mem_ctrls.wrQLenPdf::3                       1                       # What write queue length does an incoming req see
system.mem_ctrls.wrQLenPdf::4                       1                       # What write queue length does an incoming req see
system.mem_ctrls.wrQLenPdf::5                       1                       # What write queue length does an incoming req see
system.mem_ctrls.wrQLenPdf::6                       1                       # What write queue length does an incoming req see
system.mem_ctrls.wrQLenPdf::7                       1                       # What write queue length does an incoming req see
system.mem_ctrls.wrQLenPdf::8                       1                       # What write queue length does an incoming req see
system.mem_ctrls.wrQLenPdf::9                       1                       # What write queue length does an incoming req see
system.mem_ctrls.wrQLenPdf::10                      1                       # What write queue length does an incoming req see
system.mem_ctrls.wrQLenPdf::11                      1                       # What write queue length does an incoming req see
system.mem_ctrls.wrQLenPdf::12                      1                       # What write queue length does an incoming req see
system.mem_ctrls.wrQLenPdf::13                      1                       # What write queue length does an incoming req see
system.mem_ctrls.wrQLenPdf::14                      1                       # What write queue length does an incoming req see
system.mem_ctrls.wrQLenPdf::15                      2                       # What write queue length does an incoming req see
system.mem_ctrls.wrQLenPdf::16                      3                       # What write queue length does an incoming req see
system.mem_ctrls.wrQLenPdf::17                     42                       # What write queue length does an incoming req see
system.mem_ctrls.wrQLenPdf::18                     42                       # What write queue length does an incoming req see
system.mem_ctrls.wrQLenPdf::19                     43                       # What write queue length does an incoming req see
system.mem_ctrls.wrQLenPdf::20                     43                       # What write queue length does an incoming req see
system.mem_ctrls.wrQLenPdf::21                     42                       # What write queue length does an incoming req see
system.mem_ctrls.wrQLenPdf::22                     42                       # What write queue length does an incoming req see
system.mem_ctrls.wrQLenPdf::23                     42                       # What write queue length does an incoming req see
system.mem_ctrls.wrQLenPdf::24                     42                       # What write queue length does an incoming req see
system.mem_ctrls.wrQLenPdf::25                     42                       # What write queue length does an incoming req see
system.mem_ctrls.wrQLenPdf::26                     42                       # What write queue length does an incoming req see
system.mem_ctrls.wrQLenPdf::27                     42                       # What write queue length does an incoming req see
system.mem_ctrls.wrQLenPdf::28                     42                       # What write queue length does an incoming req see
system.mem_ctrls.wrQLenPdf::29                     42                       # What write queue length does an incoming req see
system.mem_ctrls.wrQLenPdf::30                     41                       # What write queue length does an incoming req see
system.mem_ctrls.wrQLenPdf::31                     41                       # What write queue length does an incoming req see
system.mem_ctrls.wrQLenPdf::32                     41                       # What write queue length does an incoming req see
system.mem_ctrls.wrQLenPdf::33                      0                       # What write queue length does an incoming req see
system.mem_ctrls.wrQLenPdf::34                      0                       # What write queue length does an incoming req see
system.mem_ctrls.wrQLenPdf::35                      0                       # What write queue length does an incoming req see
system.mem_ctrls.wrQLenPdf::36                      0                       # What write queue length does an incoming req see
system.mem_ctrls.wrQLenPdf::37                      0                       # What write queue length does an incoming req see
system.mem_ctrls.wrQLenPdf::38                      0                       # What write queue length does an incoming req see
system.mem_ctrls.wrQLenPdf::39                      0                       # What write queue length does an incoming req see
system.mem_ctrls.wrQLenPdf::40                      0                       # What write queue length does an incoming req see
system.mem_ctrls.wrQLenPdf::41                      0                       # What write queue length does an incoming req see
system.mem_ctrls.wrQLenPdf::42                      0                       # What write queue length does an incoming req see
system.mem_ctrls.wrQLenPdf::43                      0                       # What write queue length does an incoming req see
system.mem_ctrls.wrQLenPdf::44                      0                       # What write queue length does an incoming req see
system.mem_ctrls.wrQLenPdf::45                      0                       # What write queue length does an incoming req see
system.mem_ctrls.wrQLenPdf::46                      0                       # What write queue length does an incoming req see
system.mem_ctrls.wrQLenPdf::47                      0                       # What write queue length does an incoming req see
system.mem_ctrls.wrQLenPdf::48                      0                       # What write queue length does an incoming req see
system.mem_ctrls.wrQLenPdf::49                      0                       # What write queue length does an incoming req see
system.mem_ctrls.wrQLenPdf::50                      0                       # What write queue length does an incoming req see
system.mem_ctrls.wrQLenPdf::51                      0                       # What write queue length does an incoming req see
system.mem_ctrls.wrQLenPdf::52                      0                       # What write queue length does an incoming req see
system.mem_ctrls.wrQLenPdf::53                      0                       # What write queue length does an incoming req see
system.mem_ctrls.wrQLenPdf::54                      0                       # What write queue length does an incoming req see
system.mem_ctrls.wrQLenPdf::55                      0                       # What write queue length does an incoming req see
system.mem_ctrls.wrQLenPdf::56                      0                       # What write queue length does an incoming req see
system.mem_ctrls.wrQLenPdf::57                      0                       # What write queue length does an incoming req see
system.mem_ctrls.wrQLenPdf::58                      0                       # What write queue length does an incoming req see
system.mem_ctrls.wrQLenPdf::59                      0                       # What write queue length does an incoming req see
system.mem_ctrls.wrQLenPdf::60                      0                       # What write queue length does an incoming req see
system.mem_ctrls.wrQLenPdf::61                      0                       # What write queue length does an incoming req see
system.mem_ctrls.wrQLenPdf::62                      0                       # What write queue length does an incoming req see
system.mem_ctrls.wrQLenPdf::63                      0                       # What write queue length does an incoming req see
system.mem_ctrls.bytesPerActivate::samples          392                       # Bytes accessed per row activation
system.mem_ctrls.bytesPerActivate::mean           288                       # Bytes accessed per row activation
system.mem_ctrls.bytesPerActivate::gmean   193.493826                       # Bytes accessed per row activation
system.mem_ctrls.bytesPerActivate::stdev   279.888030                       # Bytes accessed per row activation
system.mem_ctrls.bytesPerActivate::0-127           89     22.70%     22.70% # Bytes accessed per row activation
system.mem_ctrls.bytesPerActivate::128-255          154     39.29%     61.99% # Bytes accessed per row activation
system.mem_ctrls.bytesPerActivate::256-383           43     10.97%     72.96% # Bytes accessed per row activation
system.mem_ctrls.bytesPerActivate::384-511           33      8.42%     81.38% # Bytes accessed per row activation
system.mem_ctrls.bytesPerActivate::512-639           17      4.34%     85.71% # Bytes accessed per row activation
system.mem_ctrls.bytesPerActivate::640-767           14      3.57%     89.29% # Bytes accessed per row activation
system.mem_ctrls.bytesPerActivate::768-895            7      1.79%     91.07% # Bytes accessed per row activation
system.mem_ctrls.bytesPerActivate::896-1023           11      2.81%     93.88% # Bytes accessed per row activation
system.mem_ctrls.bytesPerActivate::1024-1151           24      6.12%    100.00% # Bytes accessed per row activation
system.mem_ctrls.bytesPerActivate::total          392                       # Bytes accessed per row activation
system.mem_ctrls.rdPerTurnAround::samples           41                       # Reads before turning the bus around for writes
system.mem_ctrls.rdPerTurnAround::mean      26.829268                       # Reads before turning the bus around for writes
system.mem_ctrls.rdPerTurnAround::gmean     20.564091                       # Reads before turning the bus around for writes
system.mem_ctrls.rdPerTurnAround::stdev     33.327093                       # Reads before turning the bus around for writes
system.mem_ctrls.rdPerTurnAround::8-15              9     21.95%     21.95% # Reads before turning the bus around for writes
system.mem_ctrls.rdPerTurnAround::16-23            25     60.98%     82.93% # Reads before turning the bus around for writes
system.mem_ctrls.rdPerTurnAround::24-31             3      7.32%     90.24% # Reads before turning the bus around for writes
system.mem_ctrls.rdPerTurnAround::32-39             1      2.44%     92.68% # Reads before turning the bus around for writes
system.mem_ctrls.rdPerTurnAround::64-71             1      2.44%     95.12% # Reads before turning the bus around for writes
system.mem_ctrls.rdPerTurnAround::160-167            1      2.44%     97.56% # Reads before turning the bus around for writes
system.mem_ctrls.rdPerTurnAround::168-175            1      2.44%    100.00% # Reads before turning the bus around for writes
system.mem_ctrls.rdPerTurnAround::total            41                       # Reads before turning the bus around for writes
system.mem_ctrls.wrPerTurnAround::samples           41                       # Writes before turning the bus around for reads
system.mem_ctrls.wrPerTurnAround::mean      16.121951                       # Writes before turning the bus around for reads
system.mem_ctrls.wrPerTurnAround::gmean     16.113428                       # Writes before turning the bus around for reads
system.mem_ctrls.wrPerTurnAround::stdev      0.556557                       # Writes before turning the bus around for reads
system.mem_ctrls.wrPerTurnAround::16               39     95.12%     95.12% # Writes before turning the bus around for reads
system.mem_ctrls.wrPerTurnAround::18                1      2.44%     97.56% # Writes before turning the bus around for reads
system.mem_ctrls.wrPerTurnAround::19                1      2.44%    100.00% # Writes before turning the bus around for reads
system.mem_ctrls.wrPerTurnAround::total            41                       # Writes before turning the bus around for reads
system.mem_ctrls.bytesReadDRAM                  71232                       # Total number of bytes read from DRAM
system.mem_ctrls.bytesReadWrQ                    3136                       # Total number of bytes read from write queue
system.mem_ctrls.bytesWritten                   42304                       # Total number of bytes written to DRAM
system.mem_ctrls.bytesReadSys                   74368                       # Total read bytes from the system interface side
system.mem_ctrls.bytesWrittenSys                44672                       # Total written bytes from the system interface side
system.mem_ctrls.avgRdBW                         0.93                       # Average DRAM read bandwidth in MiByte/s
system.mem_ctrls.avgWrBW                         0.55                       # Average achieved write bandwidth in MiByte/s
system.mem_ctrls.avgRdBWSys                      0.97                       # Average system read bandwidth in MiByte/s
system.mem_ctrls.avgWrBWSys                      0.58                       # Average system write bandwidth in MiByte/s
system.mem_ctrls.peakBW                      12800.00                       # Theoretical peak bandwidth in MiByte/s
system.mem_ctrls.busUtil                         0.01                       # Data bus utilization in percentage
system.mem_ctrls.busUtilRead                     0.01                       # Data bus utilization in percentage for reads
system.mem_ctrls.busUtilWrite                    0.00                       # Data bus utilization in percentage for writes
system.mem_ctrls.totGap                   76789075000                       # Total gap between requests
system.mem_ctrls.avgGap                   41284448.92                       # Average gap between requests
system.mem_ctrls.masterReadBytes::.cpu.inst        45568                       # Per-master bytes read from memory
system.mem_ctrls.masterReadBytes::.cpu.data        25664                       # Per-master bytes read from memory
system.mem_ctrls.masterWriteBytes::.writebacks        42304                       # Per-master bytes write to memory
system.mem_ctrls.masterReadRate::.cpu.inst 593417.632635052665                       # Per-master bytes read from memory rate (Bytes/sec)
system.mem_ctrls.masterReadRate::.cpu.data 334214.144222831645                       # Per-master bytes read from memory rate (Bytes/sec)
system.mem_ctrls.masterWriteRate::.writebacks 550911.594342373312                       # Per-master bytes write to memory rate (Bytes/sec)
system.mem_ctrls.masterReadAccesses::.cpu.inst          761                       # Per-master read serviced memory accesses
system.mem_ctrls.masterReadAccesses::.cpu.data          401                       # Per-master read serviced memory accesses
system.mem_ctrls.masterWriteAccesses::.writebacks          698                       # Per-master write serviced memory accesses
system.mem_ctrls.masterReadTotalLat::.cpu.inst     20797500                       # Per-master read total memory access latency
system.mem_ctrls.masterReadTotalLat::.cpu.data     11287750                       # Per-master read total memory access latency
system.mem_ctrls.masterWriteTotalLat::.writebacks 1611201210500                       # Per-master write total memory access latency
system.mem_ctrls.masterReadAvgLat::.cpu.inst     27329.17                       # Per-master read average memory access latency
system.mem_ctrls.masterReadAvgLat::.cpu.data     28149.00                       # Per-master read average memory access latency
system.mem_ctrls.masterWriteAvgLat::.writebacks 2308311189.83                       # Per-master write average memory access latency
system.mem_ctrls.pageHitRate                    76.44                       # Row buffer hit rate, read and write combined
system.mem_ctrls.rank1.actEnergy              1320900                       # Energy for activate commands per rank (pJ)
system.mem_ctrls.rank1.preEnergy               694485                       # Energy for precharge commands per rank (pJ)
system.mem_ctrls.rank1.readEnergy             3962700                       # Energy for read commands per rank (pJ)
system.mem_ctrls.rank1.writeEnergy            1785240                       # Energy for write commands per rank (pJ)
system.mem_ctrls.rank1.refreshEnergy     6061579680.000001                       # Energy for refresh commands per rank (pJ)
system.mem_ctrls.rank1.actBackEnergy       1147868280                       # Energy for active background per rank (pJ)
system.mem_ctrls.rank1.preBackEnergy      28520384640                       # Energy for precharge background per rank (pJ)
system.mem_ctrls.rank1.actPowerDownEnergy            0                       # Energy for active power-down per rank (pJ)
system.mem_ctrls.rank1.prePowerDownEnergy            0                       # Energy for precharge power-down per rank (pJ)
system.mem_ctrls.rank1.selfRefreshEnergy            0                       # Energy for self refresh per rank (pJ)
system.mem_ctrls.rank1.totalEnergy        35737595925                       # Total energy per rank (pJ)
system.mem_ctrls.rank1.averagePower        465.399394                       # Core power per rank (mW)
system.mem_ctrls.rank1.totalIdleTime                0                       # Total Idle time Per DRAM Rank
system.mem_ctrls.rank1.memoryStateTime::IDLE  74135996250                       # Time in different power states
system.mem_ctrls.rank1.memoryStateTime::REF   2564120000                       # Time in different power states
system.mem_ctrls.rank1.memoryStateTime::SREF            0                       # Time in different power states
system.mem_ctrls.rank1.memoryStateTime::PRE_PDN            0                       # Time in different power states
system.mem_ctrls.rank1.memoryStateTime::ACT     88973750                       # Time in different power states
system.mem_ctrls.rank1.memoryStateTime::ACT_PDN            0                       # Time in different power states
system.mem_ctrls.rank0.actEnergy              1499400                       # Energy for activate commands per rank (pJ)
system.mem_ctrls.rank0.preEnergy               793155                       # Energy for precharge commands per rank (pJ)
system.mem_ctrls.rank0.readEnergy             3984120                       # Energy for read commands per rank (pJ)
system.mem_ctrls.rank0.writeEnergy            1665180                       # Energy for write commands per rank (pJ)
system.mem_ctrls.rank0.refreshEnergy     6061579680.000001                       # Energy for refresh commands per rank (pJ)
system.mem_ctrls.rank0.actBackEnergy       1303199550                       # Energy for active background per rank (pJ)
system.mem_ctrls.rank0.preBackEnergy      28389579360                       # Energy for precharge background per rank (pJ)
system.mem_ctrls.rank0.actPowerDownEnergy            0                       # Energy for active power-down per rank (pJ)
system.mem_ctrls.rank0.prePowerDownEnergy            0                       # Energy for precharge power-down per rank (pJ)
system.mem_ctrls.rank0.selfRefreshEnergy            0                       # Energy for self refresh per rank (pJ)
system.mem_ctrls.rank0.totalEnergy        35762300445                       # Total energy per rank (pJ)
system.mem_ctrls.rank0.averagePower        465.721113                       # Core power per rank (mW)
system.mem_ctrls.rank0.totalIdleTime                0                       # Total Idle time Per DRAM Rank
system.mem_ctrls.rank0.memoryStateTime::IDLE  73794585000                       # Time in different power states
system.mem_ctrls.rank0.memoryStateTime::REF   2564120000                       # Time in different power states
system.mem_ctrls.rank0.memoryStateTime::SREF            0                       # Time in different power states
system.mem_ctrls.rank0.memoryStateTime::PRE_PDN            0                       # Time in different power states
system.mem_ctrls.rank0.memoryStateTime::ACT    430385000                       # Time in different power states
system.mem_ctrls.rank0.memoryStateTime::ACT_PDN            0                       # Time in different power states
system.cpu_clk_domain.clock                       500                       # Clock period in ticks
system.cpu.numPwrStateTransitions                   1                       # Number of power state transitions
system.cpu.pwrStateResidencyTicks::ON     76789090000                       # Cumulative time (in ticks) in various power states
system.cpu.icache.pwrStateResidencyTicks::UNDEFINED  76789090000                       # Cumulative time (in ticks) in various power states
system.cpu.icache.demand_hits::.cpu.inst     57537384                       # number of demand (read+write) hits
system.cpu.icache.demand_hits::total         57537384                       # number of demand (read+write) hits
system.cpu.icache.overall_hits::.cpu.inst     57537384                       # number of overall hits
system.cpu.icache.overall_hits::total        57537384                       # number of overall hits
system.cpu.icache.demand_misses::.cpu.inst          761                       # number of demand (read+write) misses
system.cpu.icache.demand_misses::total            761                       # number of demand (read+write) misses
system.cpu.icache.overall_misses::.cpu.inst          761                       # number of overall misses
system.cpu.icache.overall_misses::total           761                       # number of overall misses
system.cpu.icache.demand_miss_latency::.cpu.inst     45031000                       # number of demand (read+write) miss cycles
system.cpu.icache.demand_miss_latency::total     45031000                       # number of demand (read+write) miss cycles
system.cpu.icache.overall_miss_latency::.cpu.inst     45031000                       # number of overall miss cycles
system.cpu.icache.overall_miss_latency::total     45031000                       # number of overall miss cycles
system.cpu.icache.demand_accesses::.cpu.inst     57538145                       # number of demand (read+write) accesses
system.cpu.icache.demand_accesses::total     57538145                       # number of demand (read+write) accesses
system.cpu.icache.overall_accesses::.cpu.inst     57538145                       # number of overall (read+write) accesses
system.cpu.icache.overall_accesses::total     57538145                       # number of overall (read+write) accesses
system.cpu.icache.demand_miss_rate::.cpu.inst     0.000013                       # miss rate for demand accesses
system.cpu.icache.demand_miss_rate::total     0.000013                       # miss rate for demand accesses
system.cpu.icache.overall_miss_rate::.cpu.inst     0.000013                       # miss rate for overall accesses
system.cpu.icache.overall_miss_rate::total     0.000013                       # miss rate for overall accesses
system.cpu.icache.demand_avg_miss_latency::.cpu.inst 59173.455979                       # average overall miss latency
system.cpu.icache.demand_avg_miss_latency::total 59173.455979                       # average overall miss latency
system.cpu.icache.overall_avg_miss_latency::.cpu.inst 59173.455979                       # average overall miss latency
system.cpu.icache.overall_avg_miss_latency::total 59173.455979                       # average overall miss latency
system.cpu.icache.blocked_cycles::no_mshrs            0                       # number of cycles access was blocked
system.cpu.icache.blocked_cycles::no_targets            0                       # number of cycles access was blocked
system.cpu.icache.blocked::no_mshrs                 0                       # number of cycles access was blocked
system.cpu.icache.blocked::no_targets               0                       # number of cycles access was blocked
system.cpu.icache.avg_blocked_cycles::no_mshrs          nan                       # average number of cycles each access was blocked
system.cpu.icache.avg_blocked_cycles::no_targets          nan                       # average number of cycles each access was blocked
system.cpu.icache.writebacks::.writebacks          697                       # number of writebacks
system.cpu.icache.writebacks::total               697                       # number of writebacks
system.cpu.icache.demand_mshr_misses::.cpu.inst          761                       # number of demand (read+write) MSHR misses
system.cpu.icache.demand_mshr_misses::total          761                       # number of demand (read+write) MSHR misses
system.cpu.icache.overall_mshr_misses::.cpu.inst          761                       # number of overall MSHR misses
system.cpu.icache.overall_mshr_misses::total          761                       # number of overall MSHR misses
system.cpu.icache.demand_mshr_miss_latency::.cpu.inst     44270000                       # number of demand (read+write) MSHR miss cycles
system.cpu.icache.demand_mshr_miss_latency::total     44270000                       # number of demand (read+write) MSHR miss cycles
system.cpu.icache.overall_mshr_miss_latency::.cpu.inst     44270000                       # number of overall MSHR miss cycles
system.cpu.icache.overall_mshr_miss_latency::total     44270000                       # number of overall MSHR miss cycles
system.cpu.icache.demand_mshr_miss_rate::.cpu.inst     0.000013                       # mshr miss rate for demand accesses
system.cpu.icache.demand_mshr_miss_rate::total     0.000013                       # mshr miss rate for demand accesses
system.cpu.icache.overall_mshr_miss_rate::.cpu.inst     0.000013                       # mshr miss rate for overall accesses
system.cpu.icache.overall_mshr_miss_rate::total     0.000013                       # mshr miss rate for overall accesses
system.cpu.icache.demand_avg_mshr_miss_latency::.cpu.inst 58173.455979                       # average overall mshr miss latency
system.cpu.icache.demand_avg_mshr_miss_latency::total 58173.455979                       # average overall mshr miss latency
system.cpu.icache.overall_avg_mshr_miss_latency::.cpu.inst 58173.455979                       # average overall mshr miss latency
system.cpu.icache.overall_avg_mshr_miss_latency::total 58173.455979                       # average overall mshr miss latency
system.cpu.icache.replacements                    697                       # number of replacements
system.cpu.icache.ReadReq_hits::.cpu.inst     57537384                       # number of ReadReq hits
system.cpu.icache.ReadReq_hits::total        57537384                       # number of ReadReq hits
system.cpu.icache.ReadReq_misses::.cpu.inst          761                       # number of ReadReq misses
system.cpu.icache.ReadReq_misses::total           761                       # number of ReadReq misses
system.cpu.icache.ReadReq_miss_latency::.cpu.inst     45031000                       # number of ReadReq miss cycles
system.cpu.icache.ReadReq_miss_latency::total     45031000                       # number of ReadReq miss cycles
system.cpu.icache.ReadReq_accesses::.cpu.inst     57538145                       # number of ReadReq accesses(hits+misses)
system.cpu.icache.ReadReq_accesses::total     57538145                       # number of ReadReq accesses(hits+misses)
system.cpu.icache.ReadReq_miss_rate::.cpu.inst     0.000013                       # miss rate for ReadReq accesses
system.cpu.icache.ReadReq_miss_rate::total     0.000013                       # miss rate for ReadReq accesses
system.cpu.icache.ReadReq_avg_miss_latency::.cpu.inst 59173.455979                       # average ReadReq miss latency
system.cpu.icache.ReadReq_avg_miss_latency::total 59173.455979                       # average ReadReq miss latency
system.cpu.icache.ReadReq_mshr_misses::.cpu.inst          761                       # number of ReadReq MSHR misses
system.cpu.icache.ReadReq_mshr_misses::total          761                       # number of ReadReq MSHR misses
system.cpu.icache.ReadReq_mshr_miss_latency::.cpu.inst     44270000                       # number of ReadReq MSHR miss cycles
system.cpu.icache.ReadReq_mshr_miss_latency::total     44270000                       # number of ReadReq MSHR miss cycles
system.cpu.icache.ReadReq_mshr_miss_rate::.cpu.inst     0.000013                       # mshr miss rate for ReadReq accesses
system.cpu.icache.ReadReq_mshr_miss_rate::total     0.000013                       # mshr miss rate for ReadReq accesses
system.cpu.icache.ReadReq_avg_mshr_miss_latency::.cpu.inst 58173.455979                       # average ReadReq mshr miss latency
system.cpu.icache.ReadReq_avg_mshr_miss_latency::total 58173.455979                       # average ReadReq mshr miss latency
system.cpu.icache.tags.pwrStateResidencyTicks::UNDEFINED  76789090000                       # Cumulative time (in ticks) in various power states
system.cpu.icache.tags.tagsinuse            63.996269                       # Cycle average of tags in use
system.cpu.icache.tags.total_refs            57538145                       # Total number of references to valid blocks.
system.cpu.icache.tags.sampled_refs               761                       # Sample count of references to valid blocks.
system.cpu.icache.tags.avg_refs          75608.600526                       # Average number of references to valid blocks.
system.cpu.icache.tags.warmup_cycle             77000                       # Cycle when the warmup percentage was hit.
system.cpu.icache.tags.occ_blocks::.cpu.inst    63.996269                       # Average occupied blocks per requestor
system.cpu.icache.tags.occ_percent::.cpu.inst     0.999942                       # Average percentage of cache occupancy
system.cpu.icache.tags.occ_percent::total     0.999942                       # Average percentage of cache occupancy
system.cpu.icache.tags.occ_task_id_blocks::1024           64                       # Occupied blocks per task id
system.cpu.icache.tags.age_task_id_blocks_1024::0           57                       # Occupied blocks per task id
system.cpu.icache.tags.age_task_id_blocks_1024::1            7                       # Occupied blocks per task id
system.cpu.icache.tags.occ_task_id_percent::1024            1                       # Percentage of cache occupancy per task id
system.cpu.icache.tags.tag_accesses         115077051                       # Number of tag accesses
system.cpu.icache.tags.data_accesses        115077051                       # Number of data accesses
system.cpu.dtb.walker.pwrStateResidencyTicks::UNDEFINED  76789090000                       # Cumulative time (in ticks) in various power states
system.cpu.interrupts.clk_domain.clock           8000                       # Clock period in ticks
system.cpu.itb_walker_cache.pwrStateResidencyTicks::UNDEFINED  76789090000                       # Cumulative time (in ticks) in various power states
system.cpu.itb_walker_cache.blocked_cycles::no_mshrs            0                       # number of cycles access was blocked
system.cpu.itb_walker_cache.blocked_cycles::no_targets            0                       # number of cycles access was blocked
system.cpu.itb_walker_cache.blocked::no_mshrs            0                       # number of cycles access was blocked
system.cpu.itb_walker_cache.blocked::no_targets            0                       # number of cycles access was blocked
system.cpu.itb_walker_cache.avg_blocked_cycles::no_mshrs          nan                       # average number of cycles each access was blocked
system.cpu.itb_walker_cache.avg_blocked_cycles::no_targets          nan                       # average number of cycles each access was blocked
system.cpu.itb_walker_cache.replacements            0                       # number of replacements
system.cpu.itb_walker_cache.tags.pwrStateResidencyTicks::UNDEFINED  76789090000                       # Cumulative time (in ticks) in various power states
system.cpu.itb_walker_cache.tags.tagsinuse            0                       # Cycle average of tags in use
system.cpu.itb_walker_cache.tags.total_refs            0                       # Total number of references to valid blocks.
system.cpu.itb_walker_cache.tags.sampled_refs            0                       # Sample count of references to valid blocks.
system.cpu.itb_walker_cache.tags.avg_refs          nan                       # Average number of references to valid blocks.
system.cpu.itb_walker_cache.tags.warmup_cycle            0                       # Cycle when the warmup percentage was hit.
system.cpu.itb_walker_cache.tags.tag_accesses            0                       # Number of tag accesses
system.cpu.itb_walker_cache.tags.data_accesses            0                       # Number of data accesses
system.cpu.itb.walker.pwrStateResidencyTicks::UNDEFINED  76789090000                       # Cumulative time (in ticks) in various power states
system.cpu.dtb_walker_cache.pwrStateResidencyTicks::UNDEFINED  76789090000                       # Cumulative time (in ticks) in various power states
system.cpu.dtb_walker_cache.blocked_cycles::no_mshrs            0                       # number of cycles access was blocked
system.cpu.dtb_walker_cache.blocked_cycles::no_targets            0                       # number of cycles access was blocked
system.cpu.dtb_walker_cache.blocked::no_mshrs            0                       # number of cycles access was blocked
system.cpu.dtb_walker_cache.blocked::no_targets            0                       # number of cycles access was blocked
system.cpu.dtb_walker_cache.avg_blocked_cycles::no_mshrs          nan                       # average number of cycles each access was blocked
system.cpu.dtb_walker_cache.avg_blocked_cycles::no_targets          nan                       # average number of cycles each access was blocked
system.cpu.dtb_walker_cache.replacements            0                       # number of replacements
system.cpu.dtb_walker_cache.tags.pwrStateResidencyTicks::UNDEFINED  76789090000                       # Cumulative time (in ticks) in various power states
system.cpu.dtb_walker_cache.tags.tagsinuse            0                       # Cycle average of tags in use
system.cpu.dtb_walker_cache.tags.total_refs            0                       # Total number of references to valid blocks.
system.cpu.dtb_walker_cache.tags.sampled_refs            0                       # Sample count of references to valid blocks.
system.cpu.dtb_walker_cache.tags.avg_refs          nan                       # Average number of references to valid blocks.
system.cpu.dtb_walker_cache.tags.warmup_cycle            0                       # Cycle when the warmup percentage was hit.
system.cpu.dtb_walker_cache.tags.tag_accesses            0                       # Number of tag accesses
system.cpu.dtb_walker_cache.tags.data_accesses            0                       # Number of data accesses
system.cpu.dcache.pwrStateResidencyTicks::UNDEFINED  76789090000                       # Cumulative time (in ticks) in various power states
system.cpu.dcache.demand_hits::.cpu.data     19179855                       # number of demand (read+write) hits
system.cpu.dcache.demand_hits::total         19179855                       # number of demand (read+write) hits
system.cpu.dcache.overall_hits::.cpu.data     19179855                       # number of overall hits
system.cpu.dcache.overall_hits::total        19179855                       # number of overall hits
system.cpu.dcache.demand_misses::.cpu.data          401                       # number of demand (read+write) misses
system.cpu.dcache.demand_misses::total            401                       # number of demand (read+write) misses
system.cpu.dcache.overall_misses::.cpu.data          401                       # number of overall misses
system.cpu.dcache.overall_misses::total           401                       # number of overall misses
system.cpu.dcache.demand_miss_latency::.cpu.data     24310500                       # number of demand (read+write) miss cycles
system.cpu.dcache.demand_miss_latency::total     24310500                       # number of demand (read+write) miss cycles
system.cpu.dcache.overall_miss_latency::.cpu.data     24310500                       # number of overall miss cycles
system.cpu.dcache.overall_miss_latency::total     24310500                       # number of overall miss cycles
system.cpu.dcache.demand_accesses::.cpu.data     19180256                       # number of demand (read+write) accesses
system.cpu.dcache.demand_accesses::total     19180256                       # number of demand (read+write) accesses
system.cpu.dcache.overall_accesses::.cpu.data     19180256                       # number of overall (read+write) accesses
system.cpu.dcache.overall_accesses::total     19180256                       # number of overall (read+write) accesses
system.cpu.dcache.demand_miss_rate::.cpu.data     0.000021                       # miss rate for demand accesses
system.cpu.dcache.demand_miss_rate::total     0.000021                       # miss rate for demand accesses
system.cpu.dcache.overall_miss_rate::.cpu.data     0.000021                       # miss rate for overall accesses
system.cpu.dcache.overall_miss_rate::total     0.000021                       # miss rate for overall accesses
system.cpu.dcache.demand_avg_miss_latency::.cpu.data 60624.688279                       # average overall miss latency
system.cpu.dcache.demand_avg_miss_latency::total 60624.688279                       # average overall miss latency
system.cpu.dcache.overall_avg_miss_latency::.cpu.data 60624.688279                       # average overall miss latency
system.cpu.dcache.overall_avg_miss_latency::total 60624.688279                       # average overall miss latency
system.cpu.dcache.blocked_cycles::no_mshrs            0                       # number of cycles access was blocked
system.cpu.dcache.blocked_cycles::no_targets            0                       # number of cycles access was blocked
system.cpu.dcache.blocked::no_mshrs                 0                       # number of cycles access was blocked
system.cpu.dcache.blocked::no_targets               0                       # number of cycles access was blocked
system.cpu.dcache.avg_blocked_cycles::no_mshrs          nan                       # average number of cycles each access was blocked
system.cpu.dcache.avg_blocked_cycles::no_targets          nan                       # average number of cycles each access was blocked
system.cpu.dcache.writebacks::.writebacks            1                       # number of writebacks
system.cpu.dcache.writebacks::total                 1                       # number of writebacks
system.cpu.dcache.demand_mshr_misses::.cpu.data          401                       # number of demand (read+write) MSHR misses
system.cpu.dcache.demand_mshr_misses::total          401                       # number of demand (read+write) MSHR misses
system.cpu.dcache.overall_mshr_misses::.cpu.data          401                       # number of overall MSHR misses
system.cpu.dcache.overall_mshr_misses::total          401                       # number of overall MSHR misses
system.cpu.dcache.demand_mshr_miss_latency::.cpu.data     23909500                       # number of demand (read+write) MSHR miss cycles
system.cpu.dcache.demand_mshr_miss_latency::total     23909500                       # number of demand (read+write) MSHR miss cycles
system.cpu.dcache.overall_mshr_miss_latency::.cpu.data     23909500                       # number of overall MSHR miss cycles
system.cpu.dcache.overall_mshr_miss_latency::total     23909500                       # number of overall MSHR miss cycles
system.cpu.dcache.demand_mshr_miss_rate::.cpu.data     0.000021                       # mshr miss rate for demand accesses
system.cpu.dcache.demand_mshr_miss_rate::total     0.000021                       # mshr miss rate for demand accesses
system.cpu.dcache.overall_mshr_miss_rate::.cpu.data     0.000021                       # mshr miss rate for overall accesses
system.cpu.dcache.overall_mshr_miss_rate::total     0.000021                       # mshr miss rate for overall accesses
system.cpu.dcache.demand_avg_mshr_miss_latency::.cpu.data 59624.688279                       # average overall mshr miss latency
system.cpu.dcache.demand_avg_mshr_miss_latency::total 59624.688279                       # average overall mshr miss latency
system.cpu.dcache.overall_avg_mshr_miss_latency::.cpu.data 59624.688279                       # average overall mshr miss latency
system.cpu.dcache.overall_avg_mshr_miss_latency::total 59624.688279                       # average overall mshr miss latency
system.cpu.dcache.replacements                      2                       # number of replacements
system.cpu.dcache.ReadReq_hits::.cpu.data     13698153                       # number of ReadReq hits
system.cpu.dcache.ReadReq_hits::total        13698153                       # number of ReadReq hits
system.cpu.dcache.ReadReq_misses::.cpu.data          271                       # number of ReadReq misses
system.cpu.dcache.ReadReq_misses::total           271                       # number of ReadReq misses
system.cpu.dcache.ReadReq_miss_latency::.cpu.data     16446000                       # number of ReadReq miss cycles
system.cpu.dcache.ReadReq_miss_latency::total     16446000                       # number of ReadReq miss cycles
system.cpu.dcache.ReadReq_accesses::.cpu.data     13698424                       # number of ReadReq accesses(hits+misses)
system.cpu.dcache.ReadReq_accesses::total     13698424                       # number of ReadReq accesses(hits+misses)
system.cpu.dcache.ReadReq_miss_rate::.cpu.data     0.000020                       # miss rate for ReadReq accesses
system.cpu.dcache.ReadReq_miss_rate::total     0.000020                       # miss rate for ReadReq accesses
system.cpu.dcache.ReadReq_avg_miss_latency::.cpu.data 60686.346863                       # average ReadReq miss latency
system.cpu.dcache.ReadReq_avg_miss_latency::total 60686.346863                       # average ReadReq miss latency
system.cpu.dcache.ReadReq_mshr_misses::.cpu.data          271                       # number of ReadReq MSHR misses
system.cpu.dcache.ReadReq_mshr_misses::total          271                       # number of ReadReq MSHR misses
system.cpu.dcache.ReadReq_mshr_miss_latency::.cpu.data     16175000                       # number of ReadReq MSHR miss cycles
system.cpu.dcache.ReadReq_mshr_miss_latency::total     16175000                       # number of ReadReq MSHR miss cycles
system.cpu.dcache.ReadReq_mshr_miss_rate::.cpu.data     0.000020                       # mshr miss rate for ReadReq accesses
system.cpu.dcache.ReadReq_mshr_miss_rate::total     0.000020                       # mshr miss rate for ReadReq accesses
system.cpu.dcache.ReadReq_avg_mshr_miss_latency::.cpu.data 59686.346863                       # average ReadReq mshr miss latency
system.cpu.dcache.ReadReq_avg_mshr_miss_latency::total 59686.346863                       # average ReadReq mshr miss latency
system.cpu.dcache.WriteReq_hits::.cpu.data      5481702                       # number of WriteReq hits
system.cpu.dcache.WriteReq_hits::total        5481702                       # number of WriteReq hits
system.cpu.dcache.WriteReq_misses::.cpu.data          130                       # number of WriteReq misses
system.cpu.dcache.WriteReq_misses::total          130                       # number of WriteReq misses
system.cpu.dcache.WriteReq_miss_latency::.cpu.data      7864500                       # number of WriteReq miss cycles
system.cpu.dcache.WriteReq_miss_latency::total      7864500                       # number of WriteReq miss cycles
system.cpu.dcache.WriteReq_accesses::.cpu.data      5481832                       # number of WriteReq accesses(hits+misses)
system.cpu.dcache.WriteReq_accesses::total      5481832                       # number of WriteReq accesses(hits+misses)
system.cpu.dcache.WriteReq_miss_rate::.cpu.data     0.000024                       # miss rate for WriteReq accesses
system.cpu.dcache.WriteReq_miss_rate::total     0.000024                       # miss rate for WriteReq accesses
system.cpu.dcache.WriteReq_avg_miss_latency::.cpu.data 60496.153846                       # average WriteReq miss latency
system.cpu.dcache.WriteReq_avg_miss_latency::total 60496.153846                       # average WriteReq miss latency
system.cpu.dcache.WriteReq_mshr_misses::.cpu.data          130                       # number of WriteReq MSHR misses
system.cpu.dcache.WriteReq_mshr_misses::total          130                       # number of WriteReq MSHR misses
system.cpu.dcache.WriteReq_mshr_miss_latency::.cpu.data      7734500                       # number of WriteReq MSHR miss cycles
system.cpu.dcache.WriteReq_mshr_miss_latency::total      7734500                       # number of WriteReq MSHR miss cycles
system.cpu.dcache.WriteReq_mshr_miss_rate::.cpu.data     0.000024                       # mshr miss rate for WriteReq accesses
system.cpu.dcache.WriteReq_mshr_miss_rate::total     0.000024                       # mshr miss rate for WriteReq accesses
system.cpu.dcache.WriteReq_avg_mshr_miss_latency::.cpu.data 59496.153846                       # average WriteReq mshr miss latency
system.cpu.dcache.WriteReq_avg_mshr_miss_latency::total 59496.153846                       # average WriteReq mshr miss latency
system.cpu.dcache.tags.pwrStateResidencyTicks::UNDEFINED  76789090000                       # Cumulative time (in ticks) in various power states
system.cpu.dcache.tags.tagsinuse           360.465114                       # Cycle average of tags in use
system.cpu.dcache.tags.total_refs            19180256                       # Total number of references to valid blocks.
system.cpu.dcache.tags.sampled_refs               401                       # Sample count of references to valid blocks.
system.cpu.dcache.tags.avg_refs          47831.062344                       # Average number of references to valid blocks.
system.cpu.dcache.tags.warmup_cycle            148000                       # Cycle when the warmup percentage was hit.
system.cpu.dcache.tags.occ_blocks::.cpu.data   360.465114                       # Average occupied blocks per requestor
system.cpu.dcache.tags.occ_percent::.cpu.data     0.352017                       # Average percentage of cache occupancy
system.cpu.dcache.tags.occ_percent::total     0.352017                       # Average percentage of cache occupancy
system.cpu.dcache.tags.occ_task_id_blocks::1024          399                       # Occupied blocks per task id
system.cpu.dcache.tags.age_task_id_blocks_1024::0           12                       # Occupied blocks per task id
system.cpu.dcache.tags.age_task_id_blocks_1024::1           26                       # Occupied blocks per task id
system.cpu.dcache.tags.age_task_id_blocks_1024::4          361                       # Occupied blocks per task id
system.cpu.dcache.tags.occ_task_id_percent::1024     0.389648                       # Percentage of cache occupancy per task id
system.cpu.dcache.tags.tag_accesses          38360913                       # Number of tag accesses
system.cpu.dcache.tags.data_accesses         38360913                       # Number of data accesses

---------- End Simulation Statistics   ----------
