
---------- Begin Simulation Statistics ----------
final_tick                                76775784000                       # Number of ticks from beginning of simulation (restored from checkpoints and never reset)
host_inst_rate                                 816138                       # Simulator instruction rate (inst/s)
host_mem_usage                                 681288                       # Number of bytes of host memory used
host_op_rate                                  1368383                       # Simulator op (including micro ops) rate (op/s)
host_seconds                                    57.07                       # Real time elapsed on the host
host_tick_rate                             1345301282                       # Simulator tick rate (ticks/s)
sim_freq                                 1000000000000                       # Frequency of simulated ticks
sim_insts                                    46576534                       # Number of instructions simulated
sim_ops                                      78093026                       # Number of ops (including micro ops) simulated
sim_seconds                                  0.076776                       # Number of seconds simulated
sim_ticks                                 76775784000                       # Number of ticks simulated
system.cpu.Branches                           6851974                       # Number of branches fetched
system.cpu.committedInsts                    46576534                       # Number of instructions committed
system.cpu.committedOps                      78093026                       # Number of ops (including micro ops) committed
system.cpu.dtb.rdAccesses                    13698424                       # TLB accesses on read requests
system.cpu.dtb.rdMisses                            13                       # TLB misses on read requests
system.cpu.dtb.wrAccesses                     5481832                       # TLB accesses on write requests
system.cpu.dtb.wrMisses                             9                       # TLB misses on write requests
system.cpu.idle_fraction                     0.000000                       # Percentage of idle cycles
system.cpu.itb.rdAccesses                           0                       # TLB accesses on read requests
system.cpu.itb.rdMisses                             0                       # TLB misses on read requests
system.cpu.itb.wrAccesses                    57538145                       # TLB accesses on write requests
system.cpu.itb.wrMisses                            48                       # TLB misses on write requests
system.cpu.not_idle_fraction                 1.000000                       # Percentage of non-idle cycles
system.cpu.numCycles                        153551568                       # number of cpu cycles simulated
system.cpu.numWorkItemsCompleted                    0                       # number of work items this cpu completed
system.cpu.numWorkItemsStarted                      0                       # number of work items this cpu started
system.cpu.num_busy_cycles               153551567.998000                       # Number of busy cycles
system.cpu.num_cc_register_reads             26041561                       # number of times the CC registers were read
system.cpu.num_cc_register_writes            16446004                       # number of times the CC registers were written
system.cpu.num_conditional_control_insts      4112122                       # number of instructions that are conditional controls
system.cpu.num_fp_alu_accesses                   2071                       # Number of float alu accesses
system.cpu.num_fp_insts                          2071                       # number of float instructions
system.cpu.num_fp_register_reads                 3981                       # number of times the floating registers were read
system.cpu.num_fp_register_writes                1590                       # number of times the floating registers were written
system.cpu.num_func_calls                     2739154                       # number of times a function call or return occured
system.cpu.num_idle_cycles                   0.002000                       # Number of idle cycles
system.cpu.num_int_alu_accesses              78091217                       # Number of integer alu accesses
system.cpu.num_int_insts                     78091217                       # number of integer instructions
system.cpu.num_int_register_reads           178083162                       # number of times the integer registers were read
system.cpu.num_int_register_writes           65757491                       # number of times the integer registers were written
system.cpu.num_load_insts                    13698419                       # Number of load instructions
system.cpu.num_mem_refs                      19180250                       # number of memory refs
system.cpu.num_store_insts                    5481831                       # Number of store instructions
system.cpu.num_vec_alu_accesses                     0                       # Number of vector alu accesses
system.cpu.num_vec_insts                            0                       # number of vector instructions
system.cpu.num_vec_register_reads                   0                       # number of times the vector registers were read
system.cpu.num_vec_register_writes                  0                       # number of times the vector registers were written
system.cpu.op_class::No_OpClass                   114      0.00%      0.00% # Class of executed instruction
system.cpu.op_class::IntAlu                  58911567     75.44%     75.44% # Class of executed instruction
system.cpu.op_class::IntMult                       11      0.00%     75.44% # Class of executed instruction
system.cpu.op_class::IntDiv                        28      0.00%     75.44% # Class of executed instruction
system.cpu.op_class::FloatAdd                      14      0.00%     75.44% # Class of executed instruction
system.cpu.op_class::FloatCmp                       0      0.00%     75.44% # Class of executed instruction
system.cpu.op_class::FloatCvt                       0      0.00%     75.44% # Class of executed instruction
system.cpu.op_class::FloatMult                      0      0.00%     75.44% # Class of executed instruction
system.cpu.op_class::FloatMultAcc                   0      0.00%     75.44% # Class of executed instruction
system.cpu.op_class::FloatDiv                       0      0.00%     75.44% # Class of executed instruction
system.cpu.op_class::FloatMisc                      0      0.00%     75.44% # Class of executed instruction
system.cpu.op_class::FloatSqrt                      0      0.00%     75.44% # Class of executed instruction
system.cpu.op_class::SimdAdd                      374      0.00%     75.44% # Class of executed instruction
system.cpu.op_class::SimdAddAcc                     0      0.00%     75.44% # Class of executed instruction
system.cpu.op_class::SimdAlu                       92      0.00%     75.44% # Class of executed instruction
system.cpu.op_class::SimdCmp                        0      0.00%     75.44% # Class of executed instruction
system.cpu.op_class::SimdCvt                      132      0.00%     75.44% # Class of executed instruction
system.cpu.op_class::SimdMisc                     258      0.00%     75.44% # Class of executed instruction
system.cpu.op_class::SimdMult                       0      0.00%     75.44% # Class of executed instruction
system.cpu.op_class::SimdMultAcc                    0      0.00%     75.44% # Class of executed instruction
system.cpu.op_class::SimdShift                    186      0.00%     75.44% # Class of executed instruction
system.cpu.op_class::SimdShiftAcc                   0      0.00%     75.44% # Class of executed instruction
system.cpu.op_class::SimdDiv                        0      0.00%     75.44% # Class of executed instruction
system.cpu.op_class::SimdSqrt                       0      0.00%     75.44% # Class of executed instruction
system.cpu.op_class::SimdFloatAdd                   0      0.00%     75.44% # Class of executed instruction
system.cpu.op_class::SimdFloatAlu                   0      0.00%     75.44% # Class of executed instruction
system.cpu.op_class::SimdFloatCmp                   0      0.00%     75.44% # Class of executed instruction
system.cpu.op_class::SimdFloatCvt                   0      0.00%     75.44% # Class of executed instruction
system.cpu.op_class::SimdFloatDiv                   0      0.00%     75.44% # Class of executed instruction
system.cpu.op_class::SimdFloatMisc                  0      0.00%     75.44% # Class of executed instruction
system.cpu.op_class::SimdFloatMult                  0      0.00%     75.44% # Class of executed instruction
system.cpu.op_class::SimdFloatMultAcc               0      0.00%     75.44% # Class of executed instruction
system.cpu.op_class::SimdFloatSqrt                  0      0.00%     75.44% # Class of executed instruction
system.cpu.op_class::SimdReduceAdd                  0      0.00%     75.44% # Class of executed instruction
system.cpu.op_class::SimdReduceAlu                  0      0.00%     75.44% # Class of executed instruction
system.cpu.op_class::SimdReduceCmp                  0      0.00%     75.44% # Class of executed instruction
system.cpu.op_class::SimdFloatReduceAdd             0      0.00%     75.44% # Class of executed instruction
system.cpu.op_class::SimdFloatReduceCmp             0      0.00%     75.44% # Class of executed instruction
system.cpu.op_class::SimdAes                        0      0.00%     75.44% # Class of executed instruction
system.cpu.op_class::SimdAesMix                     0      0.00%     75.44% # Class of executed instruction
system.cpu.op_class::SimdSha1Hash                   0      0.00%     75.44% # Class of executed instruction
system.cpu.op_class::SimdSha1Hash2                  0      0.00%     75.44% # Class of executed instruction
system.cpu.op_class::SimdSha256Hash                 0      0.00%     75.44% # Class of executed instruction
system.cpu.op_class::SimdSha256Hash2                0      0.00%     75.44% # Class of executed instruction
system.cpu.op_class::SimdShaSigma2                  0      0.00%     75.44% # Class of executed instruction
system.cpu.op_class::SimdShaSigma3                  0      0.00%     75.44% # Class of executed instruction
system.cpu.op_class::SimdPredAlu                    0      0.00%     75.44% # Class of executed instruction
system.cpu.op_class::MemRead                 13698345     17.54%     92.98% # Class of executed instruction
system.cpu.op_class::MemWrite                 5481414      7.02%    100.00% # Class of executed instruction
system.cpu.op_class::FloatMemRead                  74      0.00%    100.00% # Class of executed instruction
system.cpu.op_class::FloatMemWrite                417      0.00%    100.00% # Class of executed instruction
system.cpu.op_class::IprAccess                      0      0.00%    100.00% # Class of executed instruction
system.cpu.op_class::InstPrefetch                   0      0.00%    100.00% # Class of executed instruction
system.cpu.op_class::total                   78093026                       # Class of executed instruction
system.cpu.workload.numSyscalls                   184                       # Number of system calls
system.membus.snoop_filter.hit_multi_requests            0                       # Number of requests hitting in the snoop filter with multiple (>1) holders of the requested data.
system.membus.snoop_filter.hit_multi_snoops            0                       # Number of snoops hitting in the snoop filter with multiple (>1) holders of the requested data.
system.membus.snoop_filter.hit_single_requests          186                       # Number of requests hitting in the snoop filter with a single holder of the requested data.
system.membus.snoop_filter.hit_single_snoops            0                       # Number of snoops hitting in the snoop filter with a single holder of the requested data.
system.membus.snoop_filter.tot_requests          1149                       # Total number of requests made to the snoop filter.
system.membus.snoop_filter.tot_snoops               0                       # Total number of snoops made to the snoop filter.
system.membus.pwrStateResidencyTicks::UNDEFINED  76775784000                       # Cumulative time (in ticks) in various power states
system.membus.trans_dist::ReadResp                833                       # Transaction distribution
system.membus.trans_dist::WritebackDirty            9                       # Transaction distribution
system.membus.trans_dist::WritebackClean          155                       # Transaction distribution
system.membus.trans_dist::CleanEvict               22                       # Transaction distribution
system.membus.trans_dist::ReadExReq               130                       # Transaction distribution
system.membus.trans_dist::ReadExResp              130                       # Transaction distribution
system.membus.trans_dist::ReadCleanReq            561                       # Transaction distribution
system.membus.trans_dist::ReadSharedReq           272                       # Transaction distribution
system.membus.pkt_count_system.cpu.icache.mem_side::system.mem_ctrls.port         1277                       # Packet count per connected master and slave (bytes)
system.membus.pkt_count_system.cpu.icache.mem_side::total         1277                       # Packet count per connected master and slave (bytes)
system.membus.pkt_count_system.cpu.dcache.mem_side::system.mem_ctrls.port          835                       # Packet count per connected master and slave (bytes)
system.membus.pkt_count_system.cpu.dcache.mem_side::total          835                       # Packet count per connected master and slave (bytes)
system.membus.pkt_count::total                   2112                       # Packet count per connected master and slave (bytes)
system.membus.pkt_size_system.cpu.icache.mem_side::system.mem_ctrls.port        45824                       # Cumulative packet size per connected master and slave (bytes)
system.membus.pkt_size_system.cpu.icache.mem_side::total        45824                       # Cumulative packet size per connected master and slave (bytes)
system.membus.pkt_size_system.cpu.dcache.mem_side::system.mem_ctrls.port        26304                       # Cumulative packet size per connected master and slave (bytes)
system.membus.pkt_size_system.cpu.dcache.mem_side::total        26304                       # Cumulative packet size per connected master and slave (bytes)
system.membus.pkt_size::total                   72128                       # Cumulative packet size per connected master and slave (bytes)
system.membus.snoops                                0                       # Total snoops (count)
system.membus.snoopTraffic                          0                       # Total snoop traffic (bytes)
system.membus.snoop_fanout::samples               963                       # Request fanout histogram
system.membus.snoop_fanout::mean                    0                       # Request fanout histogram
system.membus.snoop_fanout::stdev                   0                       # Request fanout histogram
system.membus.snoop_fanout::underflows              0      0.00%      0.00% # Request fanout histogram
system.membus.snoop_fanout::0                     963    100.00%    100.00% # Request fanout histogram
system.membus.snoop_fanout::1                       0      0.00%    100.00% # Request fanout histogram
system.membus.snoop_fanout::2                       0      0.00%    100.00% # Request fanout histogram
system.membus.snoop_fanout::3                       0      0.00%    100.00% # Request fanout histogram
system.membus.snoop_fanout::4                       0      0.00%    100.00% # Request fanout histogram
system.membus.snoop_fanout::overflows               0      0.00%    100.00% # Request fanout histogram
system.membus.snoop_fanout::min_value               0                       # Request fanout histogram
system.membus.snoop_fanout::max_value               0                       # Request fanout histogram
system.membus.snoop_fanout::total                 963                       # Request fanout histogram
system.membus.reqLayer2.occupancy             1805500                       # Layer occupancy (ticks)
system.membus.reqLayer2.utilization               0.0                       # Layer utilization (%)
system.membus.respLayer1.occupancy            2982250                       # Layer occupancy (ticks)
system.membus.respLayer1.utilization              0.0                       # Layer utilization (%)
system.membus.respLayer2.occupancy            2148500                       # Layer occupancy (ticks)
system.membus.respLayer2.utilization              0.0                       # Layer utilization (%)
system.voltage_domain.voltage                       1                       # Voltage in Volts
system.clk_domain.clock                          1000                       # Clock period in ticks
system.cpu_voltage_domain.voltage                   1                       # Voltage in Volts
system.mem_ctrls.pwrStateResidencyTicks::UNDEFINED  76775784000                       # Cumulative time (in ticks) in various power states
system.mem_ctrls.bytes_read::.cpu.inst          35904                       # Number of bytes read from this memory
system.mem_ctrls.bytes_read::.cpu.data          25728                       # Number of bytes read from this memory
system.mem_ctrls.bytes_read::total              61632                       # Number of bytes read from this memory
system.mem_ctrls.bytes_inst_read::.cpu.inst        35904                       # Number of instructions bytes read from this memory
system.mem_ctrls.bytes_inst_read::total         35904                       # Number of instructions bytes read from this memory
system.mem_ctrls.bytes_written::.writebacks          576                       # Number of bytes written to this memory
system.mem_ctrls.bytes_written::total             576                       # Number of bytes written to this memory
system.mem_ctrls.num_reads::.cpu.inst             561                       # Number of read requests responded to by this memory
system.mem_ctrls.num_reads::.cpu.data             402                       # Number of read requests responded to by this memory
system.mem_ctrls.num_reads::total                 963                       # Number of read requests responded to by this memory
system.mem_ctrls.num_writes::.writebacks            9                       # Number of write requests responded to by this memory
system.mem_ctrls.num_writes::total                  9                       # Number of write requests responded to by this memory
system.mem_ctrls.bw_read::.cpu.inst            467647                       # Total read bandwidth from this memory (bytes/s)
system.mem_ctrls.bw_read::.cpu.data            335106                       # Total read bandwidth from this memory (bytes/s)
system.mem_ctrls.bw_read::total                802753                       # Total read bandwidth from this memory (bytes/s)
system.mem_ctrls.bw_inst_read::.cpu.inst       467647                       # Instruction read bandwidth from this memory (bytes/s)
system.mem_ctrls.bw_inst_read::total           467647                       # Instruction read bandwidth from this memory (bytes/s)
system.mem_ctrls.bw_write::.writebacks           7502                       # Write bandwidth from this memory (bytes/s)
system.mem_ctrls.bw_write::total                 7502                       # Write bandwidth from this memory (bytes/s)
system.mem_ctrls.bw_total::.writebacks           7502                       # Total bandwidth to/from this memory (bytes/s)
system.mem_ctrls.bw_total::.cpu.inst           467647                       # Total bandwidth to/from this memory (bytes/s)
system.mem_ctrls.bw_total::.cpu.data           335106                       # Total bandwidth to/from this memory (bytes/s)
system.mem_ctrls.bw_total::total               810255                       # Total bandwidth to/from this memory (bytes/s)
system.mem_ctrls.avgPriority_.writebacks::samples       164.00                       # Average QoS priority value for accepted requests
system.mem_ctrls.avgPriority_.cpu.inst::samples       558.00                       # Average QoS priority value for accepted requests
system.mem_ctrls.avgPriority_.cpu.data::samples       402.00                       # Average QoS priority value for accepted requests
system.mem_ctrls.priorityMinLatency      0.000000018750                       # per QoS priority minimum request to response latency (s)
system.mem_ctrls.priorityMaxLatency      0.153453992500                       # per QoS priority maximum request to response latency (s)
system.mem_ctrls.numReadWriteTurnArounds            8                       # Number of turnarounds from READ to WRITE
system.mem_ctrls.numWriteReadTurnArounds            8                       # Number of turnarounds from WRITE to READ
system.mem_ctrls.numStayReadState               21797                       # Number of times bus staying in READ state
system.mem_ctrls.numStayWriteState                127                       # Number of times bus staying in WRITE state
system.mem_ctrls.readReqs                         963                       # Number of read requests accepted
system.mem_ctrls.writeReqs                        164                       # Number of write requests accepted
system.mem_ctrls.readBursts                       963                       # Number of DRAM read bursts, including those serviced by the write queue
system.mem_ctrls.writeBursts                      164                       # Number of DRAM write bursts, including those merged in the write queue
system.mem_ctrls.servicedByWrQ                      3                       # Number of DRAM read bursts serviced by the write queue
system.mem_ctrls.mergedWrBursts                     0                       # Number of DRAM write bursts merged with an existing one
system.mem_ctrls.neitherReadNorWriteReqs            0                       # Number of requests that are neither read nor write
system.mem_ctrls.perBankRdBursts::0               154                       # Per bank write bursts
system.mem_ctrls.perBankRdBursts::1                76                       # Per bank write bursts
system.mem_ctrls.perBankRdBursts::2               136                       # Per bank write bursts
system.mem_ctrls.perBankRdBursts::3                 5                       # Per bank write bursts
system.mem_ctrls.perBankRdBursts::4                12                       # Per bank write bursts
system.mem_ctrls.perBankRdBursts::5                 5                       # Per bank write bursts
system.mem_ctrls.perBankRdBursts::6                59                       # Per bank write bursts
system.mem_ctrls.perBankRdBursts::7                42                       # Per bank write bursts
system.mem_ctrls.perBankRdBursts::8                15                       # Per bank write bursts
system.mem_ctrls.perBankRdBursts::9                24                       # Per bank write bursts
system.mem_ctrls.perBankRdBursts::10               53                       # Per bank write bursts
system.mem_ctrls.perBankRdBursts::11               78                       # Per bank write bursts
system.mem_ctrls.perBankRdBursts::12               35                       # Per bank write bursts
system.mem_ctrls.perBankRdBursts::13              128                       # Per bank write bursts
system.mem_ctrls.perBankRdBursts::14               78                       # Per bank write bursts
system.mem_ctrls.perBankRdBursts::15               60                       # Per bank write bursts
system.mem_ctrls.perBankWrBursts::0                35                       # Per bank write bursts
system.mem_ctrls.perBankWrBursts::1                 8                       # Per bank write bursts
system.mem_ctrls.perBankWrBursts::2                15                       # Per bank write bursts
system.mem_ctrls.perBankWrBursts::3                 0                       # Per bank write bursts
system.mem_ctrls.perBankWrBursts::4                 2                       # Per bank write bursts
system.mem_ctrls.perBankWrBursts::5                 0                       # Per bank write bursts
system.mem_ctrls.perBankWrBursts::6                36                       # Per bank write bursts
system.mem_ctrls.perBankWrBursts::7                 7                       # Per bank write bursts
system.mem_ctrls.perBankWrBursts::8                 0                       # Per bank write bursts
system.mem_ctrls.perBankWrBursts::9                 6                       # Per bank write bursts
system.mem_ctrls.perBankWrBursts::10                6                       # Per bank write bursts
system.mem_ctrls.perBankWrBursts::11                0                       # Per bank write bursts
system.mem_ctrls.perBankWrBursts::12                3                       # Per bank write bursts
system.mem_ctrls.perBankWrBursts::13                2                       # Per bank write bursts
system.mem_ctrls.perBankWrBursts::14               15                       # Per bank write bursts
system.mem_ctrls.perBankWrBursts::15                0                       # Per bank write bursts
system.mem_ctrls.avgRdQLen                       1.00                       # Average read queue length when enqueuing
system.mem_ctrls.avgWrQLen                      17.00                       # Average write queue length when enqueuing
system.mem_ctrls.totQLat                      7329250                       # Total ticks spent queuing
system.mem_ctrls.totBusLat                    4800000                       # Total ticks spent in databus transfers
system.mem_ctrls.totMemAccLat                25329250                       # Total ticks spent from burst creation until serviced by the DRAM
system.mem_ctrls.avgQLat                      7634.64                       # Average queueing delay per DRAM burst
system.mem_ctrls.avgBusLat                    5000.00                       # Average bus latency per DRAM burst
system.mem_ctrls.avgMemAccLat                26384.64                       # Average memory access latency per DRAM burst
system.mem_ctrls.numRdRetry                         0                       # Number of times read queue was full causing retry
system.mem_ctrls.numWrRetry                         0                       # Number of times write queue was full causing retry
system.mem_ctrls.readRowHits                      716                       # Number of row buffer hits during reads
system.mem_ctrls.writeRowHits                     104                       # Number of row buffer hits during writes
system.mem_ctrls.readRowHitRate                 74.58                       # Row buffer hit rate for reads
system.mem_ctrls.writeRowHitRate                63.41                       # Row buffer hit rate for writes
system.mem_ctrls.readPktSize::0                     0                       # Read request sizes (log2)
system.mem_ctrls.readPktSize::1                     0                       # Read request sizes (log2)
system.mem_ctrls.readPktSize::2                     0                       # Read request sizes (log2)
system.mem_ctrls.readPktSize::3                     0                       # Read request sizes (log2)
system.mem_ctrls.readPktSize::4                     0                       # Read request sizes (log2)
system.mem_ctrls.readPktSize::5                     0                       # Read request sizes (log2)
system.mem_ctrls.readPktSize::6                   963                       # Read request sizes (log2)
system.mem_ctrls.writePktSize::0                    0                       # Write request sizes (log2)
system.mem_ctrls.writePktSize::1                    0                       # Write request sizes (log2)
system.mem_ctrls.writePktSize::2                    0                       # Write request sizes (log2)
system.mem_ctrls.writePktSize::3                    0                       # Write request sizes (log2)
system.mem_ctrls.writePktSize::4                    0                       # Write request sizes (log2)
system.mem_ctrls.writePktSize::5                    0                       # Write request sizes (log2)
system.mem_ctrls.writePktSize::6                  164                       # Write request sizes (log2)
system.mem_ctrls.rdQLenPdf::0                     960                       # What read queue length does an incoming req see
system.mem_ctrls.rdQLenPdf::1                       0                       # What read queue length does an incoming req see
system.mem_ctrls.rdQLenPdf::2                       0                       # What read queue length does an incoming req see
system.mem_ctrls.rdQLenPdf::3                       0                       # What read queue length does an incoming req see
system.mem_ctrls.rdQLenPdf::4                       0                       # What read queue length does an incoming req see
system.mem_ctrls.rdQLenPdf::5                       0                       # What read queue length does an incoming req see
system.mem_ctrls.rdQLenPdf::6                       0                       # What read queue length does an incoming req see
system.mem_ctrls.rdQLenPdf::7                       0                       # What read queue length does an incoming req see
system.mem_ctrls.rdQLenPdf::8                       0                       # What read queue length does an incoming req see
system.mem_ctrls.rdQLenPdf::9                       0                       # What read queue length does an incoming req see
system.mem_ctrls.rdQLenPdf::10                      0                       # What read queue length does an incoming req see
system.mem_ctrls.rdQLenPdf::11                      0                       # What read queue length does an incoming req see
system.mem_ctrls.rdQLenPdf::12                      0                       # What read queue length does an incoming req see
system.mem_ctrls.rdQLenPdf::13                      0                       # What read queue length does an incoming req see
system.mem_ctrls.rdQLenPdf::14                      0                       # What read queue length does an incoming req see
system.mem_ctrls.rdQLenPdf::15                      0                       # What read queue length does an incoming req see
system.mem_ctrls.rdQLenPdf::16                      0                       # What read queue length does an incoming req see
system.mem_ctrls.rdQLenPdf::17                      0                       # What read queue length does an incoming req see
system.mem_ctrls.rdQLenPdf::18                      0                       # What read queue length does an incoming req see
system.mem_ctrls.rdQLenPdf::19                      0                       # What read queue length does an incoming req see
system.mem_ctrls.rdQLenPdf::20                      0                       # What read queue length does an incoming req see
system.mem_ctrls.rdQLenPdf::21                      0                       # What read queue length does an incoming req see
system.mem_ctrls.rdQLenPdf::22                      0                       # What read queue length does an incoming req see
system.mem_ctrls.rdQLenPdf::23                      0                       # What read queue length does an incoming req see
system.mem_ctrls.rdQLenPdf::24                      0                       # What read queue length does an incoming req see
system.mem_ctrls.rdQLenPdf::25                      0                       # What read queue length does an incoming req see
system.mem_ctrls.rdQLenPdf::26                      0                       # What read queue length does an incoming req see
system.mem_ctrls.rdQLenPdf::27                      0                       # What read queue length does an incoming req see
system.mem_ctrls.rdQLenPdf::28                      0                       # What read queue length does an incoming req see
system.mem_ctrls.rdQLenPdf::29                      0                       # What read queue length does an incoming req see
system.mem_ctrls.rdQLenPdf::30                      0                       # What read queue length does an incoming req see
system.mem_ctrls.rdQLenPdf::31                      0                       # What read queue length does an incoming req see
system.mem_ctrls.wrQLenPdf::0                       1                       # What write queue length does an incoming req see
system.mem_ctrls.wrQLenPdf::1                       1                       # What write queue length does an incoming req see
system.mem_ctrls.wrQLenPdf::2                       1                       # What write queue length does an incoming req see
system.mem_ctrls.wrQLenPdf::3                       1                       # What write queue length does an incoming req see
system.mem_ctrls.wrQLenPdf::4                       1                       # What write queue length does an incoming req see
system.mem_ctrls.wrQLenPdf::5                       1                       # What write queue length does an incoming req see
system.mem_ctrls.wrQLenPdf::6                       1                       # What write queue length does an incoming req see
system.mem_ctrls.wrQLenPdf::7                       1                       # What write queue length does an incoming req see
system.mem_ctrls.wrQLenPdf::8                       1                       # What write queue length does an incoming req see
system.mem_ctrls.wrQLenPdf::9                       1                       # What write queue length does an incoming req see
system.mem_ctrls.wrQLenPdf::10                      1                       # What write queue length does an incoming req see
system.mem_ctrls.wrQLenPdf::11                      1                       # What write queue length does an incoming req see
system.mem_ctrls.wrQLenPdf::12                      1                       # What write queue length does an incoming req see
system.mem_ctrls.wrQLenPdf::13                      1                       # What write queue length does an incoming req see
system.mem_ctrls.wrQLenPdf::14                      1                       # What write queue length does an incoming req see
system.mem_ctrls.wrQLenPdf::15                      4                       # What write queue length does an incoming req see
system.mem_ctrls.wrQLenPdf::16                      4                       # What write queue length does an incoming req see
system.mem_ctrls.wrQLenPdf::17                      9                       # What write queue length does an incoming req see
system.mem_ctrls.wrQLenPdf::18                      9                       # What write queue length does an incoming req see
system.mem_ctrls.wrQLenPdf::19                      9                       # What write queue length does an incoming req see
system.mem_ctrls.wrQLenPdf::20                      9                       # What write queue length does an incoming req see
system.mem_ctrls.wrQLenPdf::21                     10                       # What write queue length does an incoming req see
system.mem_ctrls.wrQLenPdf::22                      9                       # What write queue length does an incoming req see
system.mem_ctrls.wrQLenPdf::23                      9                       # What write queue length does an incoming req see
system.mem_ctrls.wrQLenPdf::24                      9                       # What write queue length does an incoming req see
system.mem_ctrls.wrQLenPdf::25                      9                       # What write queue length does an incoming req see
system.mem_ctrls.wrQLenPdf::26                      9                       # What write queue length does an incoming req see
system.mem_ctrls.wrQLenPdf::27                      9                       # What write queue length does an incoming req see
system.mem_ctrls.wrQLenPdf::28                      9                       # What write queue length does an incoming req see
system.mem_ctrls.wrQLenPdf::29                      8                       # What write queue length does an incoming req see
system.mem_ctrls.wrQLenPdf::30                      8                       # What write queue length does an incoming req see
system.mem_ctrls.wrQLenPdf::31                      8                       # What write queue length does an incoming req see
system.mem_ctrls.wrQLenPdf::32                      8                       # What write queue length does an incoming req see
system.mem_ctrls.wrQLenPdf::33                      0                       # What write queue length does an incoming req see
system.mem_ctrls.wrQLenPdf::34                      0                       # What write queue length does an incoming req see
system.mem_ctrls.wrQLenPdf::35                      0                       # What write queue length does an incoming req see
system.mem_ctrls.wrQLenPdf::36                      0                       # What write queue length does an incoming req see
system.mem_ctrls.wrQLenPdf::37                      0                       # What write queue length does an incoming req see
system.mem_ctrls.wrQLenPdf::38                      0                       # What write queue length does an incoming req see
system.mem_ctrls.wrQLenPdf::39                      0                       # What write queue length does an incoming req see
system.mem_ctrls.wrQLenPdf::40                      0                       # What write queue length does an incoming req see
system.mem_ctrls.wrQLenPdf::41                      0                       # What write queue length does an incoming req see
system.mem_ctrls.wrQLenPdf::42                      0                       # What write queue length does an incoming req see
system.mem_ctrls.wrQLenPdf::43                      0                       # What write queue length does an incoming req see
system.mem_ctrls.wrQLenPdf::44                      0                       # What write queue length does an incoming req see
system.mem_ctrls.wrQLenPdf::45                      0                       # What write queue length does an incoming req see
system.mem_ctrls.wrQLenPdf::46                      0                       # What write queue length does an incoming req see
system.mem_ctrls.wrQLenPdf::47                      0                       # What write queue length does an incoming req see
system.mem_ctrls.wrQLenPdf::48                      0                       # What write queue length does an incoming req see
system.mem_ctrls.wrQLenPdf::49                      0                       # What write queue length does an incoming req see
system.mem_ctrls.wrQLenPdf::50                      0                       # What write queue length does an incoming req see
system.mem_ctrls.wrQLenPdf::51                      0                       # What write queue length does an incoming req see
system.mem_ctrls.wrQLenPdf::52                      0                       # What write queue length does an incoming req see
system.mem_ctrls.wrQLenPdf::53                      0                       # What write queue length does an incoming req see
system.mem_ctrls.wrQLenPdf::54                      0                       # What write queue length does an incoming req see
system.mem_ctrls.wrQLenPdf::55                      0                       # What write queue length does an incoming req see
system.mem_ctrls.wrQLenPdf::56                      0                       # What write queue length does an incoming req see
system.mem_ctrls.wrQLenPdf::57                      0                       # What write queue length does an incoming req see
system.mem_ctrls.wrQLenPdf::58                      0                       # What write queue length does an incoming req see
system.mem_ctrls.wrQLenPdf::59                      0                       # What write queue length does an incoming req see
system.mem_ctrls.wrQLenPdf::60                      0                       # What write queue length does an incoming req see
system.mem_ctrls.wrQLenPdf::61                      0                       # What write queue length does an incoming req see
system.mem_ctrls.wrQLenPdf::62                      0                       # What write queue length does an incoming req see
system.mem_ctrls.wrQLenPdf::63                      0                       # What write queue length does an incoming req see
system.mem_ctrls.bytesPerActivate::samples          268                       # Bytes accessed per row activation
system.mem_ctrls.bytesPerActivate::mean    256.477612                       # Bytes accessed per row activation
system.mem_ctrls.bytesPerActivate::gmean   179.176615                       # Bytes accessed per row activation
system.mem_ctrls.bytesPerActivate::stdev   250.731864                       # Bytes accessed per row activation
system.mem_ctrls.bytesPerActivate::0-127           56     20.90%     20.90% # Bytes accessed per row activation
system.mem_ctrls.bytesPerActivate::128-255          123     45.90%     66.79% # Bytes accessed per row activation
system.mem_ctrls.bytesPerActivate::256-383           32     11.94%     78.73% # Bytes accessed per row activation
system.mem_ctrls.bytesPerActivate::384-511           16      5.97%     84.70% # Bytes accessed per row activation
system.mem_ctrls.bytesPerActivate::512-639            8      2.99%     87.69% # Bytes accessed per row activation
system.mem_ctrls.bytesPerActivate::640-767           12      4.48%     92.16% # Bytes accessed per row activation
system.mem_ctrls.bytesPerActivate::768-895            5      1.87%     94.03% # Bytes accessed per row activation
system.mem_ctrls.bytesPerActivate::896-1023            5      1.87%     95.90% # Bytes accessed per row activation
system.mem_ctrls.bytesPerActivate::1024-1151           11      4.10%    100.00% # Bytes accessed per row activation
system.mem_ctrls.bytesPerActivate::total          268                       # Bytes accessed per row activation
system.mem_ctrls.rdPerTurnAround::samples            8                       # Reads before turning the bus around for writes
system.mem_ctrls.rdPerTurnAround::mean     112.875000                       # Reads before turning the bus around for writes
system.mem_ctrls.rdPerTurnAround::gmean     70.771290                       # Reads before turning the bus around for writes
system.mem_ctrls.rdPerTurnAround::stdev    135.157514                       # Reads before turning the bus around for writes
system.mem_ctrls.rdPerTurnAround::16-31             2     25.00%     25.00% # Reads before turning the bus around for writes
system.mem_ctrls.rdPerTurnAround::32-47             1     12.50%     37.50% # Reads before turning the bus around for writes
system.mem_ctrls.rdPerTurnAround::48-63             1     12.50%     50.00% # Reads before turning the bus around for writes
system.mem_ctrls.rdPerTurnAround::64-79             1     12.50%     62.50% # Reads before turning the bus around for writes
system.mem_ctrls.rdPerTurnAround::80-95             1     12.50%     75.00% # Reads before turning the bus around for writes
system.mem_ctrls.rdPerTurnAround::160-175            1     12.50%     87.50% # Reads before turning the bus around for writes
system.mem_ctrls.rdPerTurnAround::416-431            1     12.50%    100.00% # Reads before turning the bus around for writes
system.mem_ctrls.rdPerTurnAround::total             8                       # Reads before turning the bus around for writes
system.mem_ctrls.wrPerTurnAround::samples            8                       # Writes before turning the bus around for reads
system.mem_ctrls.wrPerTurnAround::mean      16.875000                       # Writes before turning the bus around for reads
system.mem_ctrls.wrPerTurnAround::gmean     16.835938                       # Writes before turning the bus around for reads
system.mem_ctrls.wrPerTurnAround::stdev      1.246423                       # Writes before turning the bus around for reads
system.mem_ctrls.wrPerTurnAround::16                5     62.50%     62.50% # Writes before turning the bus around for reads
system.mem_ctrls.wrPerTurnAround::18                2     25.00%     87.50% # Writes before turning the bus around for reads
system.mem_ctrls.wrPerTurnAround::19                1     12.50%    100.00% # Writes before turning the bus around for reads
system.mem_ctrls.wrPerTurnAround::total             8                       # Writes before turning the bus around for reads
system.mem_ctrls.bytesReadDRAM                  61440                       # Total number of bytes read from DRAM
system.mem_ctrls.bytesReadWrQ                     192                       # Total number of bytes read from write queue
system.mem_ctrls.bytesWritten                    8640                       # Total number of bytes written to DRAM
system.mem_ctrls.bytesReadSys                   61632                       # Total read bytes from the system interface side
system.mem_ctrls.bytesWrittenSys                10496                       # Total written bytes from the system interface side
system.mem_ctrls.avgRdBW                         0.80                       # Average DRAM read bandwidth in MiByte/s
system.mem_ctrls.avgWrBW                         0.11                       # Average achieved write bandwidth in MiByte/s
system.mem_ctrls.avgRdBWSys                      0.80                       # Average system read bandwidth in MiByte/s
system.mem_ctrls.avgWrBWSys                      0.14                       # Average system write bandwidth in MiByte/s
system.mem_ctrls.peakBW                      12800.00                       # Theoretical peak bandwidth in MiByte/s
system.mem_ctrls.busUtil                         0.01                       # Data bus utilization in percentage
system.mem_ctrls.busUtilRead                     0.01                       # Data bus utilization in percentage for reads
system.mem_ctrls.busUtilWrite                    0.00                       # Data bus utilization in percentage for writes
system.mem_ctrls.totGap                   76775769000                       # Total gap between requests
system.mem_ctrls.avgGap                   68124018.63                       # Average gap between requests
system.mem_ctrls.masterReadBytes::.cpu.inst        35712                       # Per-master bytes read from memory
system.mem_ctrls.masterReadBytes::.cpu.data        25728                       # Per-master bytes read from memory
system.mem_ctrls.masterWriteBytes::.writebacks         8640                       # Per-master bytes write to memory
system.mem_ctrls.masterReadRate::.cpu.inst 465146.666558299155                       # Per-master bytes read from memory rate (Bytes/sec)
system.mem_ctrls.masterReadRate::.cpu.data 335105.663004366041                       # Per-master bytes read from memory rate (Bytes/sec)
system.mem_ctrls.masterWriteRate::.writebacks 112535.483844749804                       # Per-master bytes write to memory rate (Bytes/sec)
system.mem_ctrls.masterReadAccesses::.cpu.inst          561                       # Per-master read serviced memory accesses
system.mem_ctrls.masterReadAccesses::.cpu.data          402                       # Per-master read serviced memory accesses
system.mem_ctrls.masterWriteAccesses::.writebacks          164                       # Per-master write serviced memory accesses
system.mem_ctrls.masterReadTotalLat::.cpu.inst     14734750                       # Per-master read total memory access latency
system.mem_ctrls.masterReadTotalLat::.cpu.data     10594500                       # Per-master read total memory access latency
system.mem_ctrls.masterWriteTotalLat::.writebacks 1304597590500                       # Per-master write total memory access latency
system.mem_ctrls.masterReadAvgLat::.cpu.inst     26265.15                       # Per-master read average memory access latency
system.mem_ctrls.masterReadAvgLat::.cpu.data     26354.48                       # Per-master read average memory access latency
system.mem_ctrls.masterWriteAvgLat::.writebacks 7954863356.71                       # Per-master write average memory access latency
system.mem_ctrls.pageHitRate                    72.95                       # Row buffer hit rate, read and write combined
system.mem_ctrls.rank1.actEnergy               806820                       # Energy for activate commands per rank (pJ)
system.mem_ctrls.rank1.preEnergy               409860                       # Energy for precharge commands per rank (pJ)
system.mem_ctrls.rank1.readEnergy             3362940                       # Energy for read commands per rank (pJ)
system.mem_ctrls.rank1.writeEnergy             167040                       # Energy for write commands per rank (pJ)
system.mem_ctrls.rank1.refreshEnergy     6060350400.000001                       # Energy for refresh commands per rank (pJ)
system.mem_ctrls.rank1.actBackEnergy       1140701100                       # Energy for active background per rank (pJ)
system.mem_ctrls.rank1.preBackEnergy      28521311040                       # Energy for precharge background per rank (pJ)
system.mem_ctrls.rank1.actPowerDownEnergy            0                       # Energy for active power-down per rank (pJ)
system.mem_ctrls.rank1.prePowerDownEnergy            0                       # Energy for precharge power-down per rank (pJ)
system.mem_ctrls.rank1.selfRefreshEnergy            0                       # Energy for self refresh per rank (pJ)
system.mem_ctrls.rank1.totalEnergy        35727109200                       # Total energy per rank (pJ)
system.mem_ctrls.rank1.averagePower        465.343463                       # Core power per rank (mW)
system.mem_ctrls.rank1.totalIdleTime                0                       # Total Idle time Per DRAM Rank
system.mem_ctrls.rank1.memoryStateTime::IDLE  74138477500                       # Time in different power states
system.mem_ctrls.rank1.memoryStateTime::REF   2563600000                       # Time in different power states
system.mem_ctrls.rank1.memoryStateTime::SREF            0                       # Time in different power states
system.mem_ctrls.rank1.memoryStateTime::PRE_PDN            0                       # Time in different power states
system.mem_ctrls.rank1.memoryStateTime::ACT     73706500                       # Time in different power states
system.mem_ctrls.rank1.memoryStateTime::ACT_PDN            0                       # Time in different power states
system.mem_ctrls.rank0.actEnergy              1156680                       # Energy for activate commands per rank (pJ)
system.mem_ctrls.rank0.preEnergy               607200                       # Energy for precharge commands per rank (pJ)
system.mem_ctrls.rank0.readEnergy             3491460                       # Energy for read commands per rank (pJ)
system.mem_ctrls.rank0.writeEnergy             537660                       # Energy for write commands per rank (pJ)
system.mem_ctrls.rank0.refreshEnergy     6060350400.000001                       # Energy for refresh commands per rank (pJ)
system.mem_ctrls.rank0.actBackEnergy       1294681470                       # Energy for active background per rank (pJ)
system.mem_ctrls.rank0.preBackEnergy      28391643360                       # Energy for precharge background per rank (pJ)
system.mem_ctrls.rank0.actPowerDownEnergy            0                       # Energy for active power-down per rank (pJ)
system.mem_ctrls.rank0.prePowerDownEnergy            0                       # Energy for precharge power-down per rank (pJ)
system.mem_ctrls.rank0.selfRefreshEnergy            0                       # Energy for self refresh per rank (pJ)
system.mem_ctrls.rank0.totalEnergy        35752468230                       # Total energy per rank (pJ)
system.mem_ctrls.rank0.averagePower        465.673763                       # Core power per rank (mW)
system.mem_ctrls.rank0.totalIdleTime                0                       # Total Idle time Per DRAM Rank
system.mem_ctrls.rank0.memoryStateTime::IDLE  73799974500                       # Time in different power states
system.mem_ctrls.rank0.memoryStateTime::REF   2563600000                       # Time in different power states
system.mem_ctrls.rank0.memoryStateTime::SREF            0                       # Time in different power states
system.mem_ctrls.rank0.memoryStateTime::PRE_PDN            0                       # Time in different power states
system.mem_ctrls.rank0.memoryStateTime::ACT    412209500                       # Time in different power states
system.mem_ctrls.rank0.memoryStateTime::ACT_PDN            0                       # Time in different power states
system.cpu_clk_domain.clock                       500                       # Clock period in ticks
system.cpu.numPwrStateTransitions                   1                       # Number of power state transitions
system.cpu.pwrStateResidencyTicks::ON     76775784000                       # Cumulative time (in ticks) in various power states
system.cpu.icache.pwrStateResidencyTicks::UNDEFINED  76775784000                       # Cumulative time (in ticks) in various power states
system.cpu.icache.demand_hits::.cpu.inst     57537584                       # number of demand (read+write) hits
system.cpu.icache.demand_hits::total         57537584                       # number of demand (read+write) hits
system.cpu.icache.overall_hits::.cpu.inst     57537584                       # number of overall hits
system.cpu.icache.overall_hits::total        57537584                       # number of overall hits
system.cpu.icache.demand_misses::.cpu.inst          561                       # number of demand (read+write) misses
system.cpu.icache.demand_misses::total            561                       # number of demand (read+write) misses
system.cpu.icache.overall_misses::.cpu.inst          561                       # number of overall misses
system.cpu.icache.overall_misses::total           561                       # number of overall misses
system.cpu.icache.demand_miss_latency::.cpu.inst     32877000                       # number of demand (read+write) miss cycles
system.cpu.icache.demand_miss_latency::total     32877000                       # number of demand (read+write) miss cycles
system.cpu.icache.overall_miss_latency::.cpu.inst     32877000                       # number of overall miss cycles
system.cpu.icache.overall_miss_latency::total     32877000                       # number of overall miss cycles
system.cpu.icache.demand_accesses::.cpu.inst     57538145                       # number of demand (read+write) accesses
system.cpu.icache.demand_accesses::total     57538145                       # number of demand (read+write) accesses
system.cpu.icache.overall_accesses::.cpu.inst     57538145                       # number of overall (read+write) accesses
system.cpu.icache.overall_accesses::total     57538145                       # number of overall (read+write) accesses
system.cpu.icache.demand_miss_rate::.cpu.inst     0.000010                       # miss rate for demand accesses
system.cpu.icache.demand_miss_rate::total     0.000010                       # miss rate for demand accesses
system.cpu.icache.overall_miss_rate::.cpu.inst     0.000010                       # miss rate for overall accesses
system.cpu.icache.overall_miss_rate::total     0.000010                       # miss rate for overall accesses
system.cpu.icache.demand_avg_miss_latency::.cpu.inst 58604.278075                       # average overall miss latency
system.cpu.icache.demand_avg_miss_latency::total 58604.278075                       # average overall miss latency
system.cpu.icache.overall_avg_miss_latency::.cpu.inst 58604.278075                       # average overall miss latency
system.cpu.icache.overall_avg_miss_latency::total 58604.278075                       # average overall miss latency
system.cpu.icache.blocked_cycles::no_mshrs            0                       # number of cycles access was blocked
system.cpu.icache.blocked_cycles::no_targets            0                       # number of cycles access was blocked
system.cpu.icache.blocked::no_mshrs                 0                       # number of cycles access was blocked
system.cpu.icache.blocked::no_targets               0                       # number of cycles access was blocked
system.cpu.icache.avg_blocked_cycles::no_mshrs          nan                       # average number of cycles each access was blocked
system.cpu.icache.avg_blocked_cycles::no_targets          nan                       # average number of cycles each access was blocked
system.cpu.icache.writebacks::.writebacks          155                       # number of writebacks
system.cpu.icache.writebacks::total               155                       # number of writebacks
system.cpu.icache.demand_mshr_misses::.cpu.inst          561                       # number of demand (read+write) MSHR misses
system.cpu.icache.demand_mshr_misses::total          561                       # number of demand (read+write) MSHR misses
system.cpu.icache.overall_mshr_misses::.cpu.inst          561                       # number of overall MSHR misses
system.cpu.icache.overall_mshr_misses::total          561                       # number of overall MSHR misses
system.cpu.icache.demand_mshr_miss_latency::.cpu.inst     32316000                       # number of demand (read+write) MSHR miss cycles
system.cpu.icache.demand_mshr_miss_latency::total     32316000                       # number of demand (read+write) MSHR miss cycles
system.cpu.icache.overall_mshr_miss_latency::.cpu.inst     32316000                       # number of overall MSHR miss cycles
system.cpu.icache.overall_mshr_miss_latency::total     32316000                       # number of overall MSHR miss cycles
system.cpu.icache.demand_mshr_miss_rate::.cpu.inst     0.000010                       # mshr miss rate for demand accesses
system.cpu.icache.demand_mshr_miss_rate::total     0.000010                       # mshr miss rate for demand accesses
system.cpu.icache.overall_mshr_miss_rate::.cpu.inst     0.000010                       # mshr miss rate for overall accesses
system.cpu.icache.overall_mshr_miss_rate::total     0.000010                       # mshr miss rate for overall accesses
system.cpu.icache.demand_avg_mshr_miss_latency::.cpu.inst 57604.278075                       # average overall mshr miss latency
system.cpu.icache.demand_avg_mshr_miss_latency::total 57604.278075                       # average overall mshr miss latency
system.cpu.icache.overall_avg_mshr_miss_latency::.cpu.inst 57604.278075                       # average overall mshr miss latency
system.cpu.icache.overall_avg_mshr_miss_latency::total 57604.278075                       # average overall mshr miss latency
system.cpu.icache.replacements                    155                       # number of replacements
system.cpu.icache.ReadReq_hits::.cpu.inst     57537584                       # number of ReadReq hits
system.cpu.icache.ReadReq_hits::total        57537584                       # number of ReadReq hits
system.cpu.icache.ReadReq_misses::.cpu.inst          561                       # number of ReadReq misses
system.cpu.icache.ReadReq_misses::total           561                       # number of ReadReq misses
system.cpu.icache.ReadReq_miss_latency::.cpu.inst     32877000                       # number of ReadReq miss cycles
system.cpu.icache.ReadReq_miss_latency::total     32877000                       # number of ReadReq miss cycles
system.cpu.icache.ReadReq_accesses::.cpu.inst     57538145                       # number of ReadReq accesses(hits+misses)
system.cpu.icache.ReadReq_accesses::total     57538145                       # number of ReadReq accesses(hits+misses)
system.cpu.icache.ReadReq_miss_rate::.cpu.inst     0.000010                       # miss rate for ReadReq accesses
system.cpu.icache.ReadReq_miss_rate::total     0.000010                       # miss rate for ReadReq accesses
system.cpu.icache.ReadReq_avg_miss_latency::.cpu.inst 58604.278075                       # average ReadReq miss latency
system.cpu.icache.ReadReq_avg_miss_latency::total 58604.278075                       # average ReadReq miss latency
system.cpu.icache.ReadReq_mshr_misses::.cpu.inst          561                       # number of ReadReq MSHR misses
system.cpu.icache.ReadReq_mshr_misses::total          561                       # number of ReadReq MSHR misses
system.cpu.icache.ReadReq_mshr_miss_latency::.cpu.inst     32316000                       # number of ReadReq MSHR miss cycles
system.cpu.icache.ReadReq_mshr_miss_latency::total     32316000                       # number of ReadReq MSHR miss cycles
system.cpu.icache.ReadReq_mshr_miss_rate::.cpu.inst     0.000010                       # mshr miss rate for ReadReq accesses
system.cpu.icache.ReadReq_mshr_miss_rate::total     0.000010                       # mshr miss rate for ReadReq accesses
system.cpu.icache.ReadReq_avg_mshr_miss_latency::.cpu.inst 57604.278075                       # average ReadReq mshr miss latency
system.cpu.icache.ReadReq_avg_mshr_miss_latency::total 57604.278075                       # average ReadReq mshr miss latency
system.cpu.icache.tags.pwrStateResidencyTicks::UNDEFINED  76775784000                       # Cumulative time (in ticks) in various power states
system.cpu.icache.tags.tagsinuse           298.930900                       # Cycle average of tags in use
system.cpu.icache.tags.total_refs            57538145                       # Total number of references to valid blocks.
system.cpu.icache.tags.sampled_refs               561                       # Sample count of references to valid blocks.
system.cpu.icache.tags.avg_refs          102563.538324                       # Average number of references to valid blocks.
system.cpu.icache.tags.warmup_cycle             77000                       # Cycle when the warmup percentage was hit.
system.cpu.icache.tags.occ_blocks::.cpu.inst   298.930900                       # Average occupied blocks per requestor
system.cpu.icache.tags.occ_percent::.cpu.inst     0.583849                       # Average percentage of cache occupancy
system.cpu.icache.tags.occ_percent::total     0.583849                       # Average percentage of cache occupancy
system.cpu.icache.tags.occ_task_id_blocks::1024          406                       # Occupied blocks per task id
system.cpu.icache.tags.age_task_id_blocks_1024::0           81                       # Occupied blocks per task id
system.cpu.icache.tags.age_task_id_blocks_1024::1          109                       # Occupied blocks per task id
system.cpu.icache.tags.age_task_id_blocks_1024::4          216                       # Occupied blocks per task id
system.cpu.icache.tags.occ_task_id_percent::1024     0.792969                       # Percentage of cache occupancy per task id
system.cpu.icache.tags.tag_accesses         115076851                       # Number of tag accesses
system.cpu.icache.tags.data_accesses        115076851                       # Number of data accesses
system.cpu.dtb.walker.pwrStateResidencyTicks::UNDEFINED  76775784000                       # Cumulative time (in ticks) in various power states
system.cpu.interrupts.clk_domain.clock           8000                       # Clock period in ticks
system.cpu.itb_walker_cache.pwrStateResidencyTicks::UNDEFINED  76775784000                       # Cumulative time (in ticks) in various power states
system.cpu.itb_walker_cache.blocked_cycles::no_mshrs            0                       # number of cycles access was blocked
system.cpu.itb_walker_cache.blocked_cycles::no_targets            0                       # number of cycles access was blocked
system.cpu.itb_walker_cache.blocked::no_mshrs            0                       # number of cycles access was blocked
system.cpu.itb_walker_cache.blocked::no_targets            0                       # number of cycles access was blocked
system.cpu.itb_walker_cache.avg_blocked_cycles::no_mshrs          nan                       # average number of cycles each access was blocked
system.cpu.itb_walker_cache.avg_blocked_cycles::no_targets          nan                       # average number of cycles each access was blocked
system.cpu.itb_walker_cache.replacements            0                       # number of replacements
system.cpu.itb_walker_cache.tags.pwrStateResidencyTicks::UNDEFINED  76775784000                       # Cumulative time (in ticks) in various power states
system.cpu.itb_walker_cache.tags.tagsinuse            0                       # Cycle average of tags in use
system.cpu.itb_walker_cache.tags.total_refs            0                       # Total number of references to valid blocks.
system.cpu.itb_walker_cache.tags.sampled_refs            0                       # Sample count of references to valid blocks.
system.cpu.itb_walker_cache.tags.avg_refs          nan                       # Average number of references to valid blocks.
system.cpu.itb_walker_cache.tags.warmup_cycle            0                       # Cycle when the warmup percentage was hit.
system.cpu.itb_walker_cache.tags.tag_accesses            0                       # Number of tag accesses
system.cpu.itb_walker_cache.tags.data_accesses            0                       # Number of data accesses
system.cpu.itb.walker.pwrStateResidencyTicks::UNDEFINED  76775784000                       # Cumulative time (in ticks) in various power states
system.cpu.dtb_walker_cache.pwrStateResidencyTicks::UNDEFINED  76775784000                       # Cumulative time (in ticks) in various power states
system.cpu.dtb_walker_cache.blocked_cycles::no_mshrs            0                       # number of cycles access was blocked
system.cpu.dtb_walker_cache.blocked_cycles::no_targets            0                       # number of cycles access was blocked
system.cpu.dtb_walker_cache.blocked::no_mshrs            0                       # number of cycles access was blocked
system.cpu.dtb_walker_cache.blocked::no_targets            0                       # number of cycles access was blocked
system.cpu.dtb_walker_cache.avg_blocked_cycles::no_mshrs          nan                       # average number of cycles each access was blocked
system.cpu.dtb_walker_cache.avg_blocked_cycles::no_targets          nan                       # average number of cycles each access was blocked
system.cpu.dtb_walker_cache.replacements            0                       # number of replacements
system.cpu.dtb_walker_cache.tags.pwrStateResidencyTicks::UNDEFINED  76775784000                       # Cumulative time (in ticks) in various power states
system.cpu.dtb_walker_cache.tags.tagsinuse            0                       # Cycle average of tags in use
system.cpu.dtb_walker_cache.tags.total_refs            0                       # Total number of references to valid blocks.
system.cpu.dtb_walker_cache.tags.sampled_refs            0                       # Sample count of references to valid blocks.
system.cpu.dtb_walker_cache.tags.avg_refs          nan                       # Average number of references to valid blocks.
system.cpu.dtb_walker_cache.tags.warmup_cycle            0                       # Cycle when the warmup percentage was hit.
system.cpu.dtb_walker_cache.tags.tag_accesses            0                       # Number of tag accesses
system.cpu.dtb_walker_cache.tags.data_accesses            0                       # Number of data accesses
system.cpu.dcache.pwrStateResidencyTicks::UNDEFINED  76775784000                       # Cumulative time (in ticks) in various power states
system.cpu.dcache.demand_hits::.cpu.data     19179854                       # number of demand (read+write) hits
system.cpu.dcache.demand_hits::total         19179854                       # number of demand (read+write) hits
system.cpu.dcache.overall_hits::.cpu.data     19179854                       # number of overall hits
system.cpu.dcache.overall_hits::total        19179854                       # number of overall hits
system.cpu.dcache.demand_misses::.cpu.data          402                       # number of demand (read+write) misses
system.cpu.dcache.demand_misses::total            402                       # number of demand (read+write) misses
system.cpu.dcache.overall_misses::.cpu.data          402                       # number of overall misses
system.cpu.dcache.overall_misses::total           402                       # number of overall misses
system.cpu.dcache.demand_miss_latency::.cpu.data     23617500                       # number of demand (read+write) miss cycles
system.cpu.dcache.demand_miss_latency::total     23617500                       # number of demand (read+write) miss cycles
system.cpu.dcache.overall_miss_latency::.cpu.data     23617500                       # number of overall miss cycles
system.cpu.dcache.overall_miss_latency::total     23617500                       # number of overall miss cycles
system.cpu.dcache.demand_accesses::.cpu.data     19180256                       # number of demand (read+write) accesses
system.cpu.dcache.demand_accesses::total     19180256                       # number of demand (read+write) accesses
system.cpu.dcache.overall_accesses::.cpu.data     19180256                       # number of overall (read+write) accesses
system.cpu.dcache.overall_accesses::total     19180256                       # number of overall (read+write) accesses
system.cpu.dcache.demand_miss_rate::.cpu.data     0.000021                       # miss rate for demand accesses
system.cpu.dcache.demand_miss_rate::total     0.000021                       # miss rate for demand accesses
system.cpu.dcache.overall_miss_rate::.cpu.data     0.000021                       # miss rate for overall accesses
system.cpu.dcache.overall_miss_rate::total     0.000021                       # miss rate for overall accesses
system.cpu.dcache.demand_avg_miss_latency::.cpu.data        58750                       # average overall miss latency
system.cpu.dcache.demand_avg_miss_latency::total        58750                       # average overall miss latency
system.cpu.dcache.overall_avg_miss_latency::.cpu.data        58750                       # average overall miss latency
system.cpu.dcache.overall_avg_miss_latency::total        58750                       # average overall miss latency
system.cpu.dcache.blocked_cycles::no_mshrs            0                       # number of cycles access was blocked
system.cpu.dcache.blocked_cycles::no_targets            0                       # number of cycles access was blocked
system.cpu.dcache.blocked::no_mshrs                 0                       # number of cycles access was blocked
system.cpu.dcache.blocked::no_targets               0                       # number of cycles access was blocked
system.cpu.dcache.avg_blocked_cycles::no_mshrs          nan                       # average number of cycles each access was blocked
system.cpu.dcache.avg_blocked_cycles::no_targets          nan                       # average number of cycles each access was blocked
system.cpu.dcache.writebacks::.writebacks            9                       # number of writebacks
system.cpu.dcache.writebacks::total                 9                       # number of writebacks
system.cpu.dcache.demand_mshr_misses::.cpu.data          402                       # number of demand (read+write) MSHR misses
system.cpu.dcache.demand_mshr_misses::total          402                       # number of demand (read+write) MSHR misses
system.cpu.dcache.overall_mshr_misses::.cpu.data          402                       # number of overall MSHR misses
system.cpu.dcache.overall_mshr_misses::total          402                       # number of overall MSHR misses
system.cpu.dcache.demand_mshr_miss_latency::.cpu.data     23215500                       # number of demand (read+write) MSHR miss cycles
system.cpu.dcache.demand_mshr_miss_latency::total     23215500                       # number of demand (read+write) MSHR miss cycles
system.cpu.dcache.overall_mshr_miss_latency::.cpu.data     23215500                       # number of overall MSHR miss cycles
system.cpu.dcache.overall_mshr_miss_latency::total     23215500                       # number of overall MSHR miss cycles
system.cpu.dcache.demand_mshr_miss_rate::.cpu.data     0.000021                       # mshr miss rate for demand accesses
system.cpu.dcache.demand_mshr_miss_rate::total     0.000021                       # mshr miss rate for demand accesses
system.cpu.dcache.overall_mshr_miss_rate::.cpu.data     0.000021                       # mshr miss rate for overall accesses
system.cpu.dcache.overall_mshr_miss_rate::total     0.000021                       # mshr miss rate for overall accesses
system.cpu.dcache.demand_avg_mshr_miss_latency::.cpu.data        57750                       # average overall mshr miss latency
system.cpu.dcache.demand_avg_mshr_miss_latency::total        57750                       # average overall mshr miss latency
system.cpu.dcache.overall_avg_mshr_miss_latency::.cpu.data        57750                       # average overall mshr miss latency
system.cpu.dcache.overall_avg_mshr_miss_latency::total        57750                       # average overall mshr miss latency
system.cpu.dcache.replacements                     31                       # number of replacements
system.cpu.dcache.ReadReq_hits::.cpu.data     13698152                       # number of ReadReq hits
system.cpu.dcache.ReadReq_hits::total        13698152                       # number of ReadReq hits
system.cpu.dcache.ReadReq_misses::.cpu.data          272                       # number of ReadReq misses
system.cpu.dcache.ReadReq_misses::total           272                       # number of ReadReq misses
system.cpu.dcache.ReadReq_miss_latency::.cpu.data     16287000                       # number of ReadReq miss cycles
system.cpu.dcache.ReadReq_miss_latency::total     16287000                       # number of ReadReq miss cycles
system.cpu.dcache.ReadReq_accesses::.cpu.data     13698424                       # number of ReadReq accesses(hits+misses)
system.cpu.dcache.ReadReq_accesses::total     13698424                       # number of ReadReq accesses(hits+misses)
system.cpu.dcache.ReadReq_miss_rate::.cpu.data     0.000020                       # miss rate for ReadReq accesses
system.cpu.dcache.ReadReq_miss_rate::total     0.000020                       # miss rate for ReadReq accesses
system.cpu.dcache.ReadReq_avg_miss_latency::.cpu.data 59878.676471                       # average ReadReq miss latency
system.cpu.dcache.ReadReq_avg_miss_latency::total 59878.676471                       # average ReadReq miss latency
system.cpu.dcache.ReadReq_mshr_misses::.cpu.data          272                       # number of ReadReq MSHR misses
system.cpu.dcache.ReadReq_mshr_misses::total          272                       # number of ReadReq MSHR misses
system.cpu.dcache.ReadReq_mshr_miss_latency::.cpu.data     16015000                       # number of ReadReq MSHR miss cycles
system.cpu.dcache.ReadReq_mshr_miss_latency::total     16015000                       # number of ReadReq MSHR miss cycles
system.cpu.dcache.ReadReq_mshr_miss_rate::.cpu.data     0.000020                       # mshr miss rate for ReadReq accesses
system.cpu.dcache.ReadReq_mshr_miss_rate::total     0.000020                       # mshr miss rate for ReadReq accesses
system.cpu.dcache.ReadReq_avg_mshr_miss_latency::.cpu.data 58878.676471                       # average ReadReq mshr miss latency
system.cpu.dcache.ReadReq_avg_mshr_miss_latency::total 58878.676471                       # average ReadReq mshr miss latency
system.cpu.dcache.WriteReq_hits::.cpu.data      5481702                       # number of WriteReq hits
system.cpu.dcache.WriteReq_hits::total        5481702                       # number of WriteReq hits
system.cpu.dcache.WriteReq_misses::.cpu.data          130                       # number of WriteReq misses
system.cpu.dcache.WriteReq_misses::total          130                       # number of WriteReq misses
system.cpu.dcache.WriteReq_miss_latency::.cpu.data      7330500                       # number of WriteReq miss cycles
system.cpu.dcache.WriteReq_miss_latency::total      7330500                       # number of WriteReq miss cycles
system.cpu.dcache.WriteReq_accesses::.cpu.data      5481832                       # number of WriteReq accesses(hits+misses)
system.cpu.dcache.WriteReq_accesses::total      5481832                       # number of WriteReq accesses(hits+misses)
system.cpu.dcache.WriteReq_miss_rate::.cpu.data     0.000024                       # miss rate for WriteReq accesses
system.cpu.dcache.WriteReq_miss_rate::total     0.000024                       # miss rate for WriteReq accesses
system.cpu.dcache.WriteReq_avg_miss_latency::.cpu.data 56388.461538                       # average WriteReq miss latency
system.cpu.dcache.WriteReq_avg_miss_latency::total 56388.461538                       # average WriteReq miss latency
system.cpu.dcache.WriteReq_mshr_misses::.cpu.data          130                       # number of WriteReq MSHR misses
system.cpu.dcache.WriteReq_mshr_misses::total          130                       # number of WriteReq MSHR misses
system.cpu.dcache.WriteReq_mshr_miss_latency::.cpu.data      7200500                       # number of WriteReq MSHR miss cycles
system.cpu.dcache.WriteReq_mshr_miss_latency::total      7200500                       # number of WriteReq MSHR miss cycles
system.cpu.dcache.WriteReq_mshr_miss_rate::.cpu.data     0.000024                       # mshr miss rate for WriteReq accesses
system.cpu.dcache.WriteReq_mshr_miss_rate::total     0.000024                       # mshr miss rate for WriteReq accesses
system.cpu.dcache.WriteReq_avg_mshr_miss_latency::.cpu.data 55388.461538                       # average WriteReq mshr miss latency
system.cpu.dcache.WriteReq_avg_mshr_miss_latency::total 55388.461538                       # average WriteReq mshr miss latency
system.cpu.dcache.tags.pwrStateResidencyTicks::UNDEFINED  76775784000                       # Cumulative time (in ticks) in various power states
system.cpu.dcache.tags.tagsinuse           336.552649                       # Cycle average of tags in use
system.cpu.dcache.tags.total_refs            19180256                       # Total number of references to valid blocks.
system.cpu.dcache.tags.sampled_refs               402                       # Sample count of references to valid blocks.
system.cpu.dcache.tags.avg_refs          47712.079602                       # Average number of references to valid blocks.
system.cpu.dcache.tags.warmup_cycle            148000                       # Cycle when the warmup percentage was hit.
system.cpu.dcache.tags.occ_blocks::.cpu.data   336.552649                       # Average occupied blocks per requestor
system.cpu.dcache.tags.occ_percent::.cpu.data     0.657329                       # Average percentage of cache occupancy
system.cpu.dcache.tags.occ_percent::total     0.657329                       # Average percentage of cache occupancy
system.cpu.dcache.tags.occ_task_id_blocks::1024          371                       # Occupied blocks per task id
system.cpu.dcache.tags.age_task_id_blocks_1024::0           13                       # Occupied blocks per task id
system.cpu.dcache.tags.age_task_id_blocks_1024::1           26                       # Occupied blocks per task id
system.cpu.dcache.tags.age_task_id_blocks_1024::4          332                       # Occupied blocks per task id
system.cpu.dcache.tags.occ_task_id_percent::1024     0.724609                       # Percentage of cache occupancy per task id
system.cpu.dcache.tags.tag_accesses          38360914                       # Number of tag accesses
system.cpu.dcache.tags.data_accesses         38360914                       # Number of data accesses

---------- End Simulation Statistics   ----------
