
---------- Begin Simulation Statistics ----------
final_tick                                95874767000                       # Number of ticks from beginning of simulation (restored from checkpoints and never reset)
host_inst_rate                                 770887                       # Simulator instruction rate (inst/s)
host_mem_usage                                 681284                       # Number of bytes of host memory used
host_op_rate                                  1292515                       # Simulator op (including micro ops) rate (op/s)
host_seconds                                    60.42                       # Real time elapsed on the host
host_tick_rate                             1586818864                       # Simulator tick rate (ticks/s)
sim_freq                                 1000000000000                       # Frequency of simulated ticks
sim_insts                                    46576534                       # Number of instructions simulated
sim_ops                                      78093026                       # Number of ops (including micro ops) simulated
sim_seconds                                  0.095875                       # Number of seconds simulated
sim_ticks                                 95874767000                       # Number of ticks simulated
system.cpu.Branches                           6851974                       # Number of branches fetched
system.cpu.committedInsts                    46576534                       # Number of instructions committed
system.cpu.committedOps                      78093026                       # Number of ops (including micro ops) committed
system.cpu.dtb.rdAccesses                    13698424                       # TLB accesses on read requests
system.cpu.dtb.rdMisses                            13                       # TLB misses on read requests
system.cpu.dtb.wrAccesses                     5481832                       # TLB accesses on write requests
system.cpu.dtb.wrMisses                             9                       # TLB misses on write requests
system.cpu.idle_fraction                     0.000000                       # Percentage of idle cycles
system.cpu.itb.rdAccesses                           0                       # TLB accesses on read requests
system.cpu.itb.rdMisses                             0                       # TLB misses on read requests
system.cpu.itb.wrAccesses                    57538145                       # TLB accesses on write requests
system.cpu.itb.wrMisses                            48                       # TLB misses on write requests
system.cpu.not_idle_fraction                 1.000000                       # Percentage of non-idle cycles
system.cpu.numCycles                        191749534                       # number of cpu cycles simulated
system.cpu.numWorkItemsCompleted                    0                       # number of work items this cpu completed
system.cpu.numWorkItemsStarted                      0                       # number of work items this cpu started
system.cpu.num_busy_cycles               191749533.998000                       # Number of busy cycles
system.cpu.num_cc_register_reads             26041561                       # number of times the CC registers were read
system.cpu.num_cc_register_writes            16446004                       # number of times the CC registers were written
system.cpu.num_conditional_control_insts      4112122                       # number of instructions that are conditional controls
system.cpu.num_fp_alu_accesses                   2071                       # Number of float alu accesses
system.cpu.num_fp_insts                          2071                       # number of float instructions
system.cpu.num_fp_register_reads                 3981                       # number of times the floating registers were read
system.cpu.num_fp_register_writes                1590                       # number of times the floating registers were written
system.cpu.num_func_calls                     2739154                       # number of times a function call or return occured
system.cpu.num_idle_cycles                   0.002000                       # Number of idle cycles
system.cpu.num_int_alu_accesses              78091217                       # Number of integer alu accesses
system.cpu.num_int_insts                     78091217                       # number of integer instructions
system.cpu.num_int_register_reads           178083162                       # number of times the integer registers were read
system.cpu.num_int_register_writes           65757491                       # number of times the integer registers were written
system.cpu.num_load_insts                    13698419                       # Number of load instructions
system.cpu.num_mem_refs                      19180250                       # number of memory refs
system.cpu.num_store_insts                    5481831                       # Number of store instructions
system.cpu.num_vec_alu_accesses                     0                       # Number of vector alu accesses
system.cpu.num_vec_insts                            0                       # number of vector instructions
system.cpu.num_vec_register_reads                   0                       # number of times the vector registers were read
system.cpu.num_vec_register_writes                  0                       # number of times the vector registers were written
system.cpu.op_class::No_OpClass                   114      0.00%      0.00% # Class of executed instruction
system.cpu.op_class::IntAlu                  58911567     75.44%     75.44% # Class of executed instruction
system.cpu.op_class::IntMult                       11      0.00%     75.44% # Class of executed instruction
system.cpu.op_class::IntDiv                        28      0.00%     75.44% # Class of executed instruction
system.cpu.op_class::FloatAdd                      14      0.00%     75.44% # Class of executed instruction
system.cpu.op_class::FloatCmp                       0      0.00%     75.44% # Class of executed instruction
system.cpu.op_class::FloatCvt                       0      0.00%     75.44% # Class of executed instruction
system.cpu.op_class::FloatMult                      0      0.00%     75.44% # Class of executed instruction
system.cpu.op_class::FloatMultAcc                   0      0.00%     75.44% # Class of executed instruction
system.cpu.op_class::FloatDiv                       0      0.00%     75.44% # Class of executed instruction
system.cpu.op_class::FloatMisc                      0      0.00%     75.44% # Class of executed instruction
system.cpu.op_class::FloatSqrt                      0      0.00%     75.44% # Class of executed instruction
system.cpu.op_class::SimdAdd                      374      0.00%     75.44% # Class of executed instruction
system.cpu.op_class::SimdAddAcc                     0      0.00%     75.44% # Class of executed instruction
system.cpu.op_class::SimdAlu                       92      0.00%     75.44% # Class of executed instruction
system.cpu.op_class::SimdCmp                        0      0.00%     75.44% # Class of executed instruction
system.cpu.op_class::SimdCvt                      132      0.00%     75.44% # Class of executed instruction
system.cpu.op_class::SimdMisc                     258      0.00%     75.44% # Class of executed instruction
system.cpu.op_class::SimdMult                       0      0.00%     75.44% # Class of executed instruction
system.cpu.op_class::SimdMultAcc                    0      0.00%     75.44% # Class of executed instruction
system.cpu.op_class::SimdShift                    186      0.00%     75.44% # Class of executed instruction
system.cpu.op_class::SimdShiftAcc                   0      0.00%     75.44% # Class of executed instruction
system.cpu.op_class::SimdDiv                        0      0.00%     75.44% # Class of executed instruction
system.cpu.op_class::SimdSqrt                       0      0.00%     75.44% # Class of executed instruction
system.cpu.op_class::SimdFloatAdd                   0      0.00%     75.44% # Class of executed instruction
system.cpu.op_class::SimdFloatAlu                   0      0.00%     75.44% # Class of executed instruction
system.cpu.op_class::SimdFloatCmp                   0      0.00%     75.44% # Class of executed instruction
system.cpu.op_class::SimdFloatCvt                   0      0.00%     75.44% # Class of executed instruction
system.cpu.op_class::SimdFloatDiv                   0      0.00%     75.44% # Class of executed instruction
system.cpu.op_class::SimdFloatMisc                  0      0.00%     75.44% # Class of executed instruction
system.cpu.op_class::SimdFloatMult                  0      0.00%     75.44% # Class of executed instruction
system.cpu.op_class::SimdFloatMultAcc               0      0.00%     75.44% # Class of executed instruction
system.cpu.op_class::SimdFloatSqrt                  0      0.00%     75.44% # Class of executed instruction
system.cpu.op_class::SimdReduceAdd                  0      0.00%     75.44% # Class of executed instruction
system.cpu.op_class::SimdReduceAlu                  0      0.00%     75.44% # Class of executed instruction
system.cpu.op_class::SimdReduceCmp                  0      0.00%     75.44% # Class of executed instruction
system.cpu.op_class::SimdFloatReduceAdd             0      0.00%     75.44% # Class of executed instruction
system.cpu.op_class::SimdFloatReduceCmp             0      0.00%     75.44% # Class of executed instruction
system.cpu.op_class::SimdAes                        0      0.00%     75.44% # Class of executed instruction
system.cpu.op_class::SimdAesMix                     0      0.00%     75.44% # Class of executed instruction
system.cpu.op_class::SimdSha1Hash                   0      0.00%     75.44% # Class of executed instruction
system.cpu.op_class::SimdSha1Hash2                  0      0.00%     75.44% # Class of executed instruction
system.cpu.op_class::SimdSha256Hash                 0      0.00%     75.44% # Class of executed instruction
system.cpu.op_class::SimdSha256Hash2                0      0.00%     75.44% # Class of executed instruction
system.cpu.op_class::SimdShaSigma2                  0      0.00%     75.44% # Class of executed instruction
system.cpu.op_class::SimdShaSigma3                  0      0.00%     75.44% # Class of executed instruction
system.cpu.op_class::SimdPredAlu                    0      0.00%     75.44% # Class of executed instruction
system.cpu.op_class::MemRead                 13698345     17.54%     92.98% # Class of executed instruction
system.cpu.op_class::MemWrite                 5481414      7.02%    100.00% # Class of executed instruction
system.cpu.op_class::FloatMemRead                  74      0.00%    100.00% # Class of executed instruction
system.cpu.op_class::FloatMemWrite                417      0.00%    100.00% # Class of executed instruction
system.cpu.op_class::IprAccess                      0      0.00%    100.00% # Class of executed instruction
system.cpu.op_class::InstPrefetch                   0      0.00%    100.00% # Class of executed instruction
system.cpu.op_class::total                   78093026                       # Class of executed instruction
system.cpu.workload.numSyscalls                   184                       # Number of system calls
system.membus.snoop_filter.hit_multi_requests            0                       # Number of requests hitting in the snoop filter with multiple (>1) holders of the requested data.
system.membus.snoop_filter.hit_multi_snoops            0                       # Number of snoops hitting in the snoop filter with multiple (>1) holders of the requested data.
system.membus.snoop_filter.hit_single_requests       353935                       # Number of requests hitting in the snoop filter with a single holder of the requested data.
system.membus.snoop_filter.hit_single_snoops            0                       # Number of snoops hitting in the snoop filter with a single holder of the requested data.
system.membus.snoop_filter.tot_requests        708030                       # Total number of requests made to the snoop filter.
system.membus.snoop_filter.tot_snoops               0                       # Total number of snoops made to the snoop filter.
system.membus.pwrStateResidencyTicks::UNDEFINED  95874767000                       # Cumulative time (in ticks) in various power states
system.membus.trans_dist::ReadResp             353749                       # Transaction distribution
system.membus.trans_dist::WritebackDirty        11262                       # Transaction distribution
system.membus.trans_dist::WritebackClean          538                       # Transaction distribution
system.membus.trans_dist::CleanEvict           342135                       # Transaction distribution
system.membus.trans_dist::ReadExReq               346                       # Transaction distribution
system.membus.trans_dist::ReadExResp              346                       # Transaction distribution
system.membus.trans_dist::ReadCleanReq            666                       # Transaction distribution
system.membus.trans_dist::ReadSharedReq        353083                       # Transaction distribution
system.membus.pkt_count_system.cpu.icache.mem_side::system.mem_ctrls.port         1870                       # Packet count per connected master and slave (bytes)
system.membus.pkt_count_system.cpu.icache.mem_side::total         1870                       # Packet count per connected master and slave (bytes)
system.membus.pkt_count_system.cpu.dcache.mem_side::system.mem_ctrls.port      1060255                       # Packet count per connected master and slave (bytes)
system.membus.pkt_count_system.cpu.dcache.mem_side::total      1060255                       # Packet count per connected master and slave (bytes)
system.membus.pkt_count::total                1062125                       # Packet count per connected master and slave (bytes)
system.membus.pkt_size_system.cpu.icache.mem_side::system.mem_ctrls.port        77056                       # Cumulative packet size per connected master and slave (bytes)
system.membus.pkt_size_system.cpu.icache.mem_side::total        77056                       # Cumulative packet size per connected master and slave (bytes)
system.membus.pkt_size_system.cpu.dcache.mem_side::system.mem_ctrls.port     23340224                       # Cumulative packet size per connected master and slave (bytes)
system.membus.pkt_size_system.cpu.dcache.mem_side::total     23340224                       # Cumulative packet size per connected master and slave (bytes)
system.membus.pkt_size::total                23417280                       # Cumulative packet size per connected master and slave (bytes)
system.membus.snoops                                0                       # Total snoops (count)
system.membus.snoopTraffic                          0                       # Total snoop traffic (bytes)
system.membus.snoop_fanout::samples            354095                       # Request fanout histogram
system.membus.snoop_fanout::mean                    0                       # Request fanout histogram
system.membus.snoop_fanout::stdev                   0                       # Request fanout histogram
system.membus.snoop_fanout::underflows              0      0.00%      0.00% # Request fanout histogram
system.membus.snoop_fanout::0                  354095    100.00%    100.00% # Request fanout histogram
system.membus.snoop_fanout::1                       0      0.00%    100.00% # Request fanout histogram
system.membus.snoop_fanout::2                       0      0.00%    100.00% # Request fanout histogram
system.membus.snoop_fanout::3                       0      0.00%    100.00% # Request fanout histogram
system.membus.snoop_fanout::4                       0      0.00%    100.00% # Request fanout histogram
system.membus.snoop_fanout::overflows               0      0.00%    100.00% # Request fanout histogram
system.membus.snoop_fanout::min_value               0                       # Request fanout histogram
system.membus.snoop_fanout::max_value               0                       # Request fanout histogram
system.membus.snoop_fanout::total              354095                       # Request fanout histogram
system.membus.reqLayer2.occupancy           755230500                       # Layer occupancy (ticks)
system.membus.reqLayer2.utilization               0.8                       # Layer utilization (%)
system.membus.respLayer1.occupancy            3548750                       # Layer occupancy (ticks)
system.membus.respLayer1.utilization              0.0                       # Layer utilization (%)
system.membus.respLayer2.occupancy         1859953250                       # Layer occupancy (ticks)
system.membus.respLayer2.utilization              1.9                       # Layer utilization (%)
system.voltage_domain.voltage                       1                       # Voltage in Volts
system.clk_domain.clock                          1000                       # Clock period in ticks
system.cpu_voltage_domain.voltage                   1                       # Voltage in Volts
system.mem_ctrls.pwrStateResidencyTicks::UNDEFINED  95874767000                       # Cumulative time (in ticks) in various power states
system.mem_ctrls.bytes_read::.cpu.inst          42624                       # Number of bytes read from this memory
system.mem_ctrls.bytes_read::.cpu.data       22619456                       # Number of bytes read from this memory
system.mem_ctrls.bytes_read::total           22662080                       # Number of bytes read from this memory
system.mem_ctrls.bytes_inst_read::.cpu.inst        42624                       # Number of instructions bytes read from this memory
system.mem_ctrls.bytes_inst_read::total         42624                       # Number of instructions bytes read from this memory
system.mem_ctrls.bytes_written::.writebacks       720768                       # Number of bytes written to this memory
system.mem_ctrls.bytes_written::total          720768                       # Number of bytes written to this memory
system.mem_ctrls.num_reads::.cpu.inst             666                       # Number of read requests responded to by this memory
system.mem_ctrls.num_reads::.cpu.data          353429                       # Number of read requests responded to by this memory
system.mem_ctrls.num_reads::total              354095                       # Number of read requests responded to by this memory
system.mem_ctrls.num_writes::.writebacks        11262                       # Number of write requests responded to by this memory
system.mem_ctrls.num_writes::total              11262                       # Number of write requests responded to by this memory
system.mem_ctrls.bw_read::.cpu.inst            444580                       # Total read bandwidth from this memory (bytes/s)
system.mem_ctrls.bw_read::.cpu.data         235927103                       # Total read bandwidth from this memory (bytes/s)
system.mem_ctrls.bw_read::total             236371683                       # Total read bandwidth from this memory (bytes/s)
system.mem_ctrls.bw_inst_read::.cpu.inst       444580                       # Instruction read bandwidth from this memory (bytes/s)
system.mem_ctrls.bw_inst_read::total           444580                       # Instruction read bandwidth from this memory (bytes/s)
system.mem_ctrls.bw_write::.writebacks        7517807                       # Write bandwidth from this memory (bytes/s)
system.mem_ctrls.bw_write::total              7517807                       # Write bandwidth from this memory (bytes/s)
system.mem_ctrls.bw_total::.writebacks        7517807                       # Total bandwidth to/from this memory (bytes/s)
system.mem_ctrls.bw_total::.cpu.inst           444580                       # Total bandwidth to/from this memory (bytes/s)
system.mem_ctrls.bw_total::.cpu.data        235927103                       # Total bandwidth to/from this memory (bytes/s)
system.mem_ctrls.bw_total::total            243889490                       # Total bandwidth to/from this memory (bytes/s)
system.mem_ctrls.avgPriority_.writebacks::samples       776.00                       # Average QoS priority value for accepted requests
system.mem_ctrls.avgPriority_.cpu.inst::samples       634.00                       # Average QoS priority value for accepted requests
system.mem_ctrls.avgPriority_.cpu.data::samples    336572.00                       # Average QoS priority value for accepted requests
system.mem_ctrls.priorityMinLatency      0.000000018750                       # per QoS priority minimum request to response latency (s)
system.mem_ctrls.priorityMaxLatency      0.191575468750                       # per QoS priority maximum request to response latency (s)
system.mem_ctrls.numReadWriteTurnArounds           47                       # Number of turnarounds from READ to WRITE
system.mem_ctrls.numWriteReadTurnArounds           47                       # Number of turnarounds from WRITE to READ
system.mem_ctrls.numStayReadState              710790                       # Number of times bus staying in READ state
system.mem_ctrls.numStayWriteState                710                       # Number of times bus staying in WRITE state
system.mem_ctrls.readReqs                      354095                       # Number of read requests accepted
system.mem_ctrls.writeReqs                      11800                       # Number of write requests accepted
system.mem_ctrls.readBursts                    354095                       # Number of DRAM read bursts, including those serviced by the write queue
system.mem_ctrls.writeBursts                    11800                       # Number of DRAM write bursts, including those merged in the write queue
system.mem_ctrls.servicedByWrQ                  16889                       # Number of DRAM read bursts serviced by the write queue
system.mem_ctrls.mergedWrBursts                 11024                       # Number of DRAM write bursts merged with an existing one
system.mem_ctrls.neitherReadNorWriteReqs            0                       # Number of requests that are neither read nor write
system.mem_ctrls.perBankRdBursts::0               193                       # Per bank write bursts
system.mem_ctrls.perBankRdBursts::1              4883                       # Per bank write bursts
system.mem_ctrls.perBankRdBursts::2             42640                       # Per bank write bursts
system.mem_ctrls.perBankRdBursts::3                10                       # Per bank write bursts
system.mem_ctrls.perBankRdBursts::4                12                       # Per bank write bursts
system.mem_ctrls.perBankRdBursts::5                 9                       # Per bank write bursts
system.mem_ctrls.perBankRdBursts::6                62                       # Per bank write bursts
system.mem_ctrls.perBankRdBursts::7                45                       # Per bank write bursts
system.mem_ctrls.perBankRdBursts::8                17                       # Per bank write bursts
system.mem_ctrls.perBankRdBursts::9                27                       # Per bank write bursts
system.mem_ctrls.perBankRdBursts::10               54                       # Per bank write bursts
system.mem_ctrls.perBankRdBursts::11               80                       # Per bank write bursts
system.mem_ctrls.perBankRdBursts::12               41                       # Per bank write bursts
system.mem_ctrls.perBankRdBursts::13           282986                       # Per bank write bursts
system.mem_ctrls.perBankRdBursts::14              473                       # Per bank write bursts
system.mem_ctrls.perBankRdBursts::15             5674                       # Per bank write bursts
system.mem_ctrls.perBankWrBursts::0               114                       # Per bank write bursts
system.mem_ctrls.perBankWrBursts::1                77                       # Per bank write bursts
system.mem_ctrls.perBankWrBursts::2                21                       # Per bank write bursts
system.mem_ctrls.perBankWrBursts::3                 4                       # Per bank write bursts
system.mem_ctrls.perBankWrBursts::4                 9                       # Per bank write bursts
system.mem_ctrls.perBankWrBursts::5                 8                       # Per bank write bursts
system.mem_ctrls.perBankWrBursts::6                63                       # Per bank write bursts
system.mem_ctrls.perBankWrBursts::7                30                       # Per bank write bursts
system.mem_ctrls.perBankWrBursts::8                13                       # Per bank write bursts
system.mem_ctrls.perBankWrBursts::9                24                       # Per bank write bursts
system.mem_ctrls.perBankWrBursts::10               28                       # Per bank write bursts
system.mem_ctrls.perBankWrBursts::11               41                       # Per bank write bursts
system.mem_ctrls.perBankWrBursts::12               13                       # Per bank write bursts
system.mem_ctrls.perBankWrBursts::13               99                       # Per bank write bursts
system.mem_ctrls.perBankWrBursts::14              105                       # Per bank write bursts
system.mem_ctrls.perBankWrBursts::15              108                       # Per bank write bursts
system.mem_ctrls.avgRdQLen                       1.00                       # Average read queue length when enqueuing
system.mem_ctrls.avgWrQLen                      20.00                       # Average write queue length when enqueuing
system.mem_ctrls.totQLat                   1919407500                       # Total ticks spent queuing
system.mem_ctrls.totBusLat                 1686030000                       # Total ticks spent in databus transfers
system.mem_ctrls.totMemAccLat              8242020000                       # Total ticks spent from burst creation until serviced by the DRAM
system.mem_ctrls.avgQLat                      5692.09                       # Average queueing delay per DRAM burst
system.mem_ctrls.avgBusLat                    5000.00                       # Average bus latency per DRAM burst
system.mem_ctrls.avgMemAccLat                24442.09                       # Average memory access latency per DRAM burst
system.mem_ctrls.numRdRetry                         0                       # Number of times read queue was full causing retry
system.mem_ctrls.numWrRetry                         0                       # Number of times write queue was full causing retry
system.mem_ctrls.readRowHits                   298115                       # Number of row buffer hits during reads
system.mem_ctrls.writeRowHits                     604                       # Number of row buffer hits during writes
system.mem_ctrls.readRowHitRate                 88.41                       # Row buffer hit rate for reads
system.mem_ctrls.writeRowHitRate                77.84                       # Row buffer hit rate for writes
system.mem_ctrls.readPktSize::0                     0                       # Read request sizes (log2)
system.mem_ctrls.readPktSize::1                     0                       # Read request sizes (log2)
system.mem_ctrls.readPktSize::2                     0                       # Read request sizes (log2)
system.mem_ctrls.readPktSize::3                     0                       # Read request sizes (log2)
system.mem_ctrls.readPktSize::4                     0                       # Read request sizes (log2)
system.mem_ctrls.readPktSize::5                     0                       # Read request sizes (log2)
system.mem_ctrls.readPktSize::6                354095                       # Read request sizes (log2)
system.mem_ctrls.writePktSize::0                    0                       # Write request sizes (log2)
system.mem_ctrls.writePktSize::1                    0                       # Write request sizes (log2)
system.mem_ctrls.writePktSize::2                    0                       # Write request sizes (log2)
system.mem_ctrls.writePktSize::3                    0                       # Write request sizes (log2)
system.mem_ctrls.writePktSize::4                    0                       # Write request sizes (log2)
system.mem_ctrls.writePktSize::5                    0                       # Write request sizes (log2)
system.mem_ctrls.writePktSize::6                11800                       # Write request sizes (log2)
system.mem_ctrls.rdQLenPdf::0                  337206                       # What read queue length does an incoming req see
system.mem_ctrls.rdQLenPdf::1                       0                       # What read queue length does an incoming req see
system.mem_ctrls.rdQLenPdf::2                       0                       # What read queue length does an incoming req see
system.mem_ctrls.rdQLenPdf::3                       0                       # What read queue length does an incoming req see
system.mem_ctrls.rdQLenPdf::4                       0                       # What read queue length does an incoming req see
system.mem_ctrls.rdQLenPdf::5                       0                       # What read queue length does an incoming req see
system.mem_ctrls.rdQLenPdf::6                       0                       # What read queue length does an incoming req see
system.mem_ctrls.rdQLenPdf::7                       0                       # What read queue length does an incoming req see
system.mem_ctrls.rdQLenPdf::8                       0                       # What read queue length does an incoming req see
system.mem_ctrls.rdQLenPdf::9                       0                       # What read queue length does an incoming req see
system.mem_ctrls.rdQLenPdf::10                      0                       # What read queue length does an incoming req see
system.mem_ctrls.rdQLenPdf::11                      0                       # What read queue length does an incoming req see
system.mem_ctrls.rdQLenPdf::12                      0                       # What read queue length does an incoming req see
system.mem_ctrls.rdQLenPdf::13                      0                       # What read queue length does an incoming req see
system.mem_ctrls.rdQLenPdf::14                      0                       # What read queue length does an incoming req see
system.mem_ctrls.rdQLenPdf::15                      0                       # What read queue length does an incoming req see
system.mem_ctrls.rdQLenPdf::16                      0                       # What read queue length does an incoming req see
system.mem_ctrls.rdQLenPdf::17                      0                       # What read queue length does an incoming req see
system.mem_ctrls.rdQLenPdf::18                      0                       # What read queue length does an incoming req see
system.mem_ctrls.rdQLenPdf::19                      0                       # What read queue length does an incoming req see
system.mem_ctrls.rdQLenPdf::20                      0                       # What read queue length does an incoming req see
system.mem_ctrls.rdQLenPdf::21                      0                       # What read queue length does an incoming req see
system.mem_ctrls.rdQLenPdf::22                      0                       # What read queue length does an incoming req see
system.mem_ctrls.rdQLenPdf::23                      0                       # What read queue length does an incoming req see
system.mem_ctrls.rdQLenPdf::24                      0                       # What read queue length does an incoming req see
system.mem_ctrls.rdQLenPdf::25                      0                       # What read queue length does an incoming req see
system.mem_ctrls.rdQLenPdf::26                      0                       # What read queue length does an incoming req see
system.mem_ctrls.rdQLenPdf::27                      0                       # What read queue length does an incoming req see
system.mem_ctrls.rdQLenPdf::28                      0                       # What read queue length does an incoming req see
system.mem_ctrls.rdQLenPdf::29                      0                       # What read queue length does an incoming req see
system.mem_ctrls.rdQLenPdf::30                      0                       # What read queue length does an incoming req see
system.mem_ctrls.rdQLenPdf::31                      0                       # What read queue length does an incoming req see
system.mem_ctrls.wrQLenPdf::0                       1                       # What write queue length does an incoming req see
system.mem_ctrls.wrQLenPdf::1                       1                       # What write queue length does an incoming req see
system.mem_ctrls.wrQLenPdf::2                       1                       # What write queue length does an incoming req see
system.mem_ctrls.wrQLenPdf::3                       1                       # What write queue length does an incoming req see
system.mem_ctrls.wrQLenPdf::4                       1                       # What write queue length does an incoming req see
system.mem_ctrls.wrQLenPdf::5                       1                       # What write queue length does an incoming req see
system.mem_ctrls.wrQLenPdf::6                       1                       # What write queue length does an incoming req see
system.mem_ctrls.wrQLenPdf::7                       1                       # What write queue length does an incoming req see
system.mem_ctrls.wrQLenPdf::8                       1                       # What write queue length does an incoming req see
system.mem_ctrls.wrQLenPdf::9                       1                       # What write queue length does an incoming req see
system.mem_ctrls.wrQLenPdf::10                      1                       # What write queue length does an incoming req see
system.mem_ctrls.wrQLenPdf::11                      1                       # What write queue length does an incoming req see
system.mem_ctrls.wrQLenPdf::12                      1                       # What write queue length does an incoming req see
system.mem_ctrls.wrQLenPdf::13                      1                       # What write queue length does an incoming req see
system.mem_ctrls.wrQLenPdf::14                      1                       # What write queue length does an incoming req see
system.mem_ctrls.wrQLenPdf::15                      2                       # What write queue length does an incoming req see
system.mem_ctrls.wrQLenPdf::16                      3                       # What write queue length does an incoming req see
system.mem_ctrls.wrQLenPdf::17                     49                       # What write queue length does an incoming req see
system.mem_ctrls.wrQLenPdf::18                     48                       # What write queue length does an incoming req see
system.mem_ctrls.wrQLenPdf::19                     47                       # What write queue length does an incoming req see
system.mem_ctrls.wrQLenPdf::20                     47                       # What write queue length does an incoming req see
system.mem_ctrls.wrQLenPdf::21                     48                       # What write queue length does an incoming req see
system.mem_ctrls.wrQLenPdf::22                     47                       # What write queue length does an incoming req see
system.mem_ctrls.wrQLenPdf::23                     47                       # What write queue length does an incoming req see
system.mem_ctrls.wrQLenPdf::24                     47                       # What write queue length does an incoming req see
system.mem_ctrls.wrQLenPdf::25                     47                       # What write queue length does an incoming req see
system.mem_ctrls.wrQLenPdf::26                     47                       # What write queue length does an incoming req see
system.mem_ctrls.wrQLenPdf::27                     47                       # What write queue length does an incoming req see
system.mem_ctrls.wrQLenPdf::28                     47                       # What write queue length does an incoming req see
system.mem_ctrls.wrQLenPdf::29                     47                       # What write queue length does an incoming req see
system.mem_ctrls.wrQLenPdf::30                     47                       # What write queue length does an incoming req see
system.mem_ctrls.wrQLenPdf::31                     47                       # What write queue length does an incoming req see
system.mem_ctrls.wrQLenPdf::32                     47                       # What write queue length does an incoming req see
system.mem_ctrls.wrQLenPdf::33                      0                       # What write queue length does an incoming req see
system.mem_ctrls.wrQLenPdf::34                      0                       # What write queue length does an incoming req see
system.mem_ctrls.wrQLenPdf::35                      0                       # What write queue length does an incoming req see
system.mem_ctrls.wrQLenPdf::36                      0                       # What write queue length does an incoming req see
system.mem_ctrls.wrQLenPdf::37                      0                       # What write queue length does an incoming req see
system.mem_ctrls.wrQLenPdf::38                      0                       # What write queue length does an incoming req see
system.mem_ctrls.wrQLenPdf::39                      0                       # What write queue length does an incoming req see
system.mem_ctrls.wrQLenPdf::40                      0                       # What write queue length does an incoming req see
system.mem_ctrls.wrQLenPdf::41                      0                       # What write queue length does an incoming req see
system.mem_ctrls.wrQLenPdf::42                      0                       # What write queue length does an incoming req see
system.mem_ctrls.wrQLenPdf::43                      0                       # What write queue length does an incoming req see
system.mem_ctrls.wrQLenPdf::44                      0                       # What write queue length does an incoming req see
system.mem_ctrls.wrQLenPdf::45                      0                       # What write queue length does an incoming req see
system.mem_ctrls.wrQLenPdf::46                      0                       # What write queue length does an incoming req see
system.mem_ctrls.wrQLenPdf::47                      0                       # What write queue length does an incoming req see
system.mem_ctrls.wrQLenPdf::48                      0                       # What write queue length does an incoming req see
system.mem_ctrls.wrQLenPdf::49                      0                       # What write queue length does an incoming req see
system.mem_ctrls.wrQLenPdf::50                      0                       # What write queue length does an incoming req see
system.mem_ctrls.wrQLenPdf::51                      0                       # What write queue length does an incoming req see
system.mem_ctrls.wrQLenPdf::52                      0                       # What write queue length does an incoming req see
system.mem_ctrls.wrQLenPdf::53                      0                       # What write queue length does an incoming req see
system.mem_ctrls.wrQLenPdf::54                      0                       # What write queue length does an incoming req see
system.mem_ctrls.wrQLenPdf::55                      0                       # What write queue length does an incoming req see
system.mem_ctrls.wrQLenPdf::56                      0                       # What write queue length does an incoming req see
system.mem_ctrls.wrQLenPdf::57                      0                       # What write queue length does an incoming req see
system.mem_ctrls.wrQLenPdf::58                      0                       # What write queue length does an incoming req see
system.mem_ctrls.wrQLenPdf::59                      0                       # What write queue length does an incoming req see
system.mem_ctrls.wrQLenPdf::60                      0                       # What write queue length does an incoming req see
system.mem_ctrls.wrQLenPdf::61                      0                       # What write queue length does an incoming req see
system.mem_ctrls.wrQLenPdf::62                      0                       # What write queue length does an incoming req see
system.mem_ctrls.wrQLenPdf::63                      0                       # What write queue length does an incoming req see
system.mem_ctrls.bytesPerActivate::samples        39236                       # Bytes accessed per row activation
system.mem_ctrls.bytesPerActivate::mean    551.235804                       # Bytes accessed per row activation
system.mem_ctrls.bytesPerActivate::gmean   403.624659                       # Bytes accessed per row activation
system.mem_ctrls.bytesPerActivate::stdev   365.827683                       # Bytes accessed per row activation
system.mem_ctrls.bytesPerActivate::0-127         2548      6.49%      6.49% # Bytes accessed per row activation
system.mem_ctrls.bytesPerActivate::128-255         7821     19.93%     26.43% # Bytes accessed per row activation
system.mem_ctrls.bytesPerActivate::256-383         5204     13.26%     39.69% # Bytes accessed per row activation
system.mem_ctrls.bytesPerActivate::384-511         4605     11.74%     51.43% # Bytes accessed per row activation
system.mem_ctrls.bytesPerActivate::512-639         3315      8.45%     59.88% # Bytes accessed per row activation
system.mem_ctrls.bytesPerActivate::640-767         2058      5.25%     65.12% # Bytes accessed per row activation
system.mem_ctrls.bytesPerActivate::768-895          947      2.41%     67.53% # Bytes accessed per row activation
system.mem_ctrls.bytesPerActivate::896-1023          453      1.15%     68.69% # Bytes accessed per row activation
system.mem_ctrls.bytesPerActivate::1024-1151        12285     31.31%    100.00% # Bytes accessed per row activation
system.mem_ctrls.bytesPerActivate::total        39236                       # Bytes accessed per row activation
system.mem_ctrls.rdPerTurnAround::samples           47                       # Reads before turning the bus around for writes
system.mem_ctrls.rdPerTurnAround::mean    7174.553191                       # Reads before turning the bus around for writes
system.mem_ctrls.rdPerTurnAround::gmean     26.933906                       # Reads before turning the bus around for writes
system.mem_ctrls.rdPerTurnAround::stdev  49015.766602                       # Reads before turning the bus around for writes
system.mem_ctrls.rdPerTurnAround::0-16383           46     97.87%     97.87% # Reads before turning the bus around for writes
system.mem_ctrls.rdPerTurnAround::327680-344063            1      2.13%    100.00% # Reads before turning the bus around for writes
system.mem_ctrls.rdPerTurnAround::total            47                       # Reads before turning the bus around for writes
system.mem_ctrls.wrPerTurnAround::samples           47                       # Writes before turning the bus around for reads
system.mem_ctrls.wrPerTurnAround::mean      16.106383                       # Writes before turning the bus around for reads
system.mem_ctrls.wrPerTurnAround::gmean     16.098903                       # Writes before turning the bus around for reads
system.mem_ctrls.wrPerTurnAround::stdev      0.520620                       # Writes before turning the bus around for reads
system.mem_ctrls.wrPerTurnAround::16               45     95.74%     95.74% # Writes before turning the bus around for reads
system.mem_ctrls.wrPerTurnAround::18                1      2.13%     97.87% # Writes before turning the bus around for reads
system.mem_ctrls.wrPerTurnAround::19                1      2.13%    100.00% # Writes before turning the bus around for reads
system.mem_ctrls.wrPerTurnAround::total            47                       # Writes before turning the bus around for reads
system.mem_ctrls.bytesReadDRAM               21581184                       # Total number of bytes read from DRAM
system.mem_ctrls.bytesReadWrQ                 1080896                       # Total number of bytes read from write queue
system.mem_ctrls.bytesWritten                   48448                       # Total number of bytes written to DRAM
system.mem_ctrls.bytesReadSys                22662080                       # Total read bytes from the system interface side
system.mem_ctrls.bytesWrittenSys               755200                       # Total written bytes from the system interface side
system.mem_ctrls.avgRdBW                       225.10                       # Average DRAM read bandwidth in MiByte/s
system.mem_ctrls.avgWrBW                         0.51                       # Average achieved write bandwidth in MiByte/s
system.mem_ctrls.avgRdBWSys                    236.37                       # Average system read bandwidth in MiByte/s
system.mem_ctrls.avgWrBWSys                      7.88                       # Average system write bandwidth in MiByte/s
system.mem_ctrls.peakBW                      12800.00                       # Theoretical peak bandwidth in MiByte/s
system.mem_ctrls.busUtil                         1.76                       # Data bus utilization in percentage
system.mem_ctrls.busUtilRead                     1.76                       # Data bus utilization in percentage for reads
system.mem_ctrls.busUtilWrite                    0.00                       # Data bus utilization in percentage for writes
system.mem_ctrls.totGap                   95874752000                       # Total gap between requests
system.mem_ctrls.avgGap                     262028.05                       # Average gap between requests
system.mem_ctrls.masterReadBytes::.cpu.inst        40576                       # Per-master bytes read from memory
system.mem_ctrls.masterReadBytes::.cpu.data     21540608                       # Per-master bytes read from memory
system.mem_ctrls.masterWriteBytes::.writebacks        48448                       # Per-master bytes write to memory
system.mem_ctrls.masterReadRate::.cpu.inst 423218.759947546991                       # Per-master bytes read from memory rate (Bytes/sec)
system.mem_ctrls.masterReadRate::.cpu.data 224674423.459094285965                       # Per-master bytes read from memory rate (Bytes/sec)
system.mem_ctrls.masterWriteRate::.writebacks 505325.869527276140                       # Per-master bytes write to memory rate (Bytes/sec)
system.mem_ctrls.masterReadAccesses::.cpu.inst          666                       # Per-master read serviced memory accesses
system.mem_ctrls.masterReadAccesses::.cpu.data       353429                       # Per-master read serviced memory accesses
system.mem_ctrls.masterWriteAccesses::.writebacks        11800                       # Per-master write serviced memory accesses
system.mem_ctrls.masterReadTotalLat::.cpu.inst     18988250                       # Per-master read total memory access latency
system.mem_ctrls.masterReadTotalLat::.cpu.data   8223031750                       # Per-master read total memory access latency
system.mem_ctrls.masterWriteTotalLat::.writebacks 1917157390750                       # Per-master write total memory access latency
system.mem_ctrls.masterReadAvgLat::.cpu.inst     28510.89                       # Per-master read average memory access latency
system.mem_ctrls.masterReadAvgLat::.cpu.data     23266.43                       # Per-master read average memory access latency
system.mem_ctrls.masterWriteAvgLat::.writebacks 162470965.32                       # Per-master write average memory access latency
system.mem_ctrls.pageHitRate                    88.38                       # Row buffer hit rate, read and write combined
system.mem_ctrls.rank1.actEnergy            189674100                       # Energy for activate commands per rank (pJ)
system.mem_ctrls.rank1.preEnergy            100795200                       # Energy for precharge commands per rank (pJ)
system.mem_ctrls.rank1.readEnergy          2065973280                       # Energy for read commands per rank (pJ)
system.mem_ctrls.rank1.writeEnergy            2249820                       # Energy for write commands per rank (pJ)
system.mem_ctrls.rank1.refreshEnergy     7568062320.000001                       # Energy for refresh commands per rank (pJ)
system.mem_ctrls.rank1.actBackEnergy      41470847040                       # Energy for active background per rank (pJ)
system.mem_ctrls.rank1.preBackEnergy       1893092160                       # Energy for precharge background per rank (pJ)
system.mem_ctrls.rank1.actPowerDownEnergy            0                       # Energy for active power-down per rank (pJ)
system.mem_ctrls.rank1.prePowerDownEnergy            0                       # Energy for precharge power-down per rank (pJ)
system.mem_ctrls.rank1.selfRefreshEnergy            0                       # Energy for self refresh per rank (pJ)
system.mem_ctrls.rank1.totalEnergy        53290693920                       # Total energy per rank (pJ)
system.mem_ctrls.rank1.averagePower        555.836489                       # Core power per rank (mW)
system.mem_ctrls.rank1.totalIdleTime                0                       # Total Idle time Per DRAM Rank
system.mem_ctrls.rank1.memoryStateTime::IDLE   4442212500                       # Time in different power states
system.mem_ctrls.rank1.memoryStateTime::REF   3201380000                       # Time in different power states
system.mem_ctrls.rank1.memoryStateTime::SREF            0                       # Time in different power states
system.mem_ctrls.rank1.memoryStateTime::PRE_PDN            0                       # Time in different power states
system.mem_ctrls.rank1.memoryStateTime::ACT  88231174500                       # Time in different power states
system.mem_ctrls.rank1.memoryStateTime::ACT_PDN            0                       # Time in different power states
system.mem_ctrls.rank0.actEnergy             90528060                       # Energy for activate commands per rank (pJ)
system.mem_ctrls.rank0.preEnergy             48105420                       # Energy for precharge commands per rank (pJ)
system.mem_ctrls.rank0.readEnergy           341677560                       # Energy for read commands per rank (pJ)
system.mem_ctrls.rank0.writeEnergy            1701720                       # Energy for write commands per rank (pJ)
system.mem_ctrls.rank0.refreshEnergy     7568062320.000001                       # Energy for refresh commands per rank (pJ)
system.mem_ctrls.rank0.actBackEnergy      34863491400                       # Energy for active background per rank (pJ)
system.mem_ctrls.rank0.preBackEnergy       7457181120                       # Energy for precharge background per rank (pJ)
system.mem_ctrls.rank0.actPowerDownEnergy            0                       # Energy for active power-down per rank (pJ)
system.mem_ctrls.rank0.prePowerDownEnergy            0                       # Energy for precharge power-down per rank (pJ)
system.mem_ctrls.rank0.selfRefreshEnergy            0                       # Energy for self refresh per rank (pJ)
system.mem_ctrls.rank0.totalEnergy        50370747600                       # Total energy per rank (pJ)
system.mem_ctrls.rank0.averagePower        525.380652                       # Core power per rank (mW)
system.mem_ctrls.rank0.totalIdleTime                0                       # Total Idle time Per DRAM Rank
system.mem_ctrls.rank0.memoryStateTime::IDLE  19075405000                       # Time in different power states
system.mem_ctrls.rank0.memoryStateTime::REF   3201380000                       # Time in different power states
system.mem_ctrls.rank0.memoryStateTime::SREF            0                       # Time in different power states
system.mem_ctrls.rank0.memoryStateTime::PRE_PDN            0                       # Time in different power states
system.mem_ctrls.rank0.memoryStateTime::ACT  73597982000                       # Time in different power states
system.mem_ctrls.rank0.memoryStateTime::ACT_PDN            0                       # Time in different power states
system.cpu_clk_domain.clock                       500                       # Clock period in ticks
system.cpu.numPwrStateTransitions                   1                       # Number of power state transitions
system.cpu.pwrStateResidencyTicks::ON     95874767000                       # Cumulative time (in ticks) in various power states
system.cpu.icache.pwrStateResidencyTicks::UNDEFINED  95874767000                       # Cumulative time (in ticks) in various power states
system.cpu.icache.demand_hits::.cpu.inst     57537479                       # number of demand (read+write) hits
system.cpu.icache.demand_hits::total         57537479                       # number of demand (read+write) hits
system.cpu.icache.overall_hits::.cpu.inst     57537479                       # number of overall hits
system.cpu.icache.overall_hits::total        57537479                       # number of overall hits
system.cpu.icache.demand_misses::.cpu.inst          666                       # number of demand (read+write) misses
system.cpu.icache.demand_misses::total            666                       # number of demand (read+write) misses
system.cpu.icache.overall_misses::.cpu.inst          666                       # number of overall misses
system.cpu.icache.overall_misses::total           666                       # number of overall misses
system.cpu.icache.demand_miss_latency::.cpu.inst     40392000                       # number of demand (read+write) miss cycles
system.cpu.icache.demand_miss_latency::total     40392000                       # number of demand (read+write) miss cycles
system.cpu.icache.overall_miss_latency::.cpu.inst     40392000                       # number of overall miss cycles
system.cpu.icache.overall_miss_latency::total     40392000                       # number of overall miss cycles
system.cpu.icache.demand_accesses::.cpu.inst     57538145                       # number of demand (read+write) accesses
system.cpu.icache.demand_accesses::total     57538145                       # number of demand (read+write) accesses
system.cpu.icache.overall_accesses::.cpu.inst     57538145                       # number of overall (read+write) accesses
system.cpu.icache.overall_accesses::total     57538145                       # number of overall (read+write) accesses
system.cpu.icache.demand_miss_rate::.cpu.inst     0.000012                       # miss rate for demand accesses
system.cpu.icache.demand_miss_rate::total     0.000012                       # miss rate for demand accesses
system.cpu.icache.overall_miss_rate::.cpu.inst     0.000012                       # miss rate for overall accesses
system.cpu.icache.overall_miss_rate::total     0.000012                       # miss rate for overall accesses
system.cpu.icache.demand_avg_miss_latency::.cpu.inst 60648.648649                       # average overall miss latency
system.cpu.icache.demand_avg_miss_latency::total 60648.648649                       # average overall miss latency
system.cpu.icache.overall_avg_miss_latency::.cpu.inst 60648.648649                       # average overall miss latency
system.cpu.icache.overall_avg_miss_latency::total 60648.648649                       # average overall miss latency
system.cpu.icache.blocked_cycles::no_mshrs            0                       # number of cycles access was blocked
system.cpu.icache.blocked_cycles::no_targets            0                       # number of cycles access was blocked
system.cpu.icache.blocked::no_mshrs                 0                       # number of cycles access was blocked
system.cpu.icache.blocked::no_targets               0                       # number of cycles access was blocked
system.cpu.icache.avg_blocked_cycles::no_mshrs          nan                       # average number of cycles each access was blocked
system.cpu.icache.avg_blocked_cycles::no_targets          nan                       # average number of cycles each access was blocked
system.cpu.icache.writebacks::.writebacks          538                       # number of writebacks
system.cpu.icache.writebacks::total               538                       # number of writebacks
system.cpu.icache.demand_mshr_misses::.cpu.inst          666                       # number of demand (read+write) MSHR misses
system.cpu.icache.demand_mshr_misses::total          666                       # number of demand (read+write) MSHR misses
system.cpu.icache.overall_mshr_misses::.cpu.inst          666                       # number of overall MSHR misses
system.cpu.icache.overall_mshr_misses::total          666                       # number of overall MSHR misses
system.cpu.icache.demand_mshr_miss_latency::.cpu.inst     39726000                       # number of demand (read+write) MSHR miss cycles
system.cpu.icache.demand_mshr_miss_latency::total     39726000                       # number of demand (read+write) MSHR miss cycles
system.cpu.icache.overall_mshr_miss_latency::.cpu.inst     39726000                       # number of overall MSHR miss cycles
system.cpu.icache.overall_mshr_miss_latency::total     39726000                       # number of overall MSHR miss cycles
system.cpu.icache.demand_mshr_miss_rate::.cpu.inst     0.000012                       # mshr miss rate for demand accesses
system.cpu.icache.demand_mshr_miss_rate::total     0.000012                       # mshr miss rate for demand accesses
system.cpu.icache.overall_mshr_miss_rate::.cpu.inst     0.000012                       # mshr miss rate for overall accesses
system.cpu.icache.overall_mshr_miss_rate::total     0.000012                       # mshr miss rate for overall accesses
system.cpu.icache.demand_avg_mshr_miss_latency::.cpu.inst 59648.648649                       # average overall mshr miss latency
system.cpu.icache.demand_avg_mshr_miss_latency::total 59648.648649                       # average overall mshr miss latency
system.cpu.icache.overall_avg_mshr_miss_latency::.cpu.inst 59648.648649                       # average overall mshr miss latency
system.cpu.icache.overall_avg_mshr_miss_latency::total 59648.648649                       # average overall mshr miss latency
system.cpu.icache.replacements                    538                       # number of replacements
system.cpu.icache.ReadReq_hits::.cpu.inst     57537479                       # number of ReadReq hits
system.cpu.icache.ReadReq_hits::total        57537479                       # number of ReadReq hits
system.cpu.icache.ReadReq_misses::.cpu.inst          666                       # number of ReadReq misses
system.cpu.icache.ReadReq_misses::total           666                       # number of ReadReq misses
system.cpu.icache.ReadReq_miss_latency::.cpu.inst     40392000                       # number of ReadReq miss cycles
system.cpu.icache.ReadReq_miss_latency::total     40392000                       # number of ReadReq miss cycles
system.cpu.icache.ReadReq_accesses::.cpu.inst     57538145                       # number of ReadReq accesses(hits+misses)
system.cpu.icache.ReadReq_accesses::total     57538145                       # number of ReadReq accesses(hits+misses)
system.cpu.icache.ReadReq_miss_rate::.cpu.inst     0.000012                       # miss rate for ReadReq accesses
system.cpu.icache.ReadReq_miss_rate::total     0.000012                       # miss rate for ReadReq accesses
system.cpu.icache.ReadReq_avg_miss_latency::.cpu.inst 60648.648649                       # average ReadReq miss latency
system.cpu.icache.ReadReq_avg_miss_latency::total 60648.648649                       # average ReadReq miss latency
system.cpu.icache.ReadReq_mshr_misses::.cpu.inst          666                       # number of ReadReq MSHR misses
system.cpu.icache.ReadReq_mshr_misses::total          666                       # number of ReadReq MSHR misses
system.cpu.icache.ReadReq_mshr_miss_latency::.cpu.inst     39726000                       # number of ReadReq MSHR miss cycles
system.cpu.icache.ReadReq_mshr_miss_latency::total     39726000                       # number of ReadReq MSHR miss cycles
system.cpu.icache.ReadReq_mshr_miss_rate::.cpu.inst     0.000012                       # mshr miss rate for ReadReq accesses
system.cpu.icache.ReadReq_mshr_miss_rate::total     0.000012                       # mshr miss rate for ReadReq accesses
system.cpu.icache.ReadReq_avg_mshr_miss_latency::.cpu.inst 59648.648649                       # average ReadReq mshr miss latency
system.cpu.icache.ReadReq_avg_mshr_miss_latency::total 59648.648649                       # average ReadReq mshr miss latency
system.cpu.icache.tags.pwrStateResidencyTicks::UNDEFINED  95874767000                       # Cumulative time (in ticks) in various power states
system.cpu.icache.tags.tagsinuse           127.984085                       # Cycle average of tags in use
system.cpu.icache.tags.total_refs            57538145                       # Total number of references to valid blocks.
system.cpu.icache.tags.sampled_refs               666                       # Sample count of references to valid blocks.
system.cpu.icache.tags.avg_refs          86393.611111                       # Average number of references to valid blocks.
system.cpu.icache.tags.warmup_cycle             77000                       # Cycle when the warmup percentage was hit.
system.cpu.icache.tags.occ_blocks::.cpu.inst   127.984085                       # Average occupied blocks per requestor
system.cpu.icache.tags.occ_percent::.cpu.inst     0.999876                       # Average percentage of cache occupancy
system.cpu.icache.tags.occ_percent::total     0.999876                       # Average percentage of cache occupancy
system.cpu.icache.tags.occ_task_id_blocks::1024          128                       # Occupied blocks per task id
system.cpu.icache.tags.age_task_id_blocks_1024::0           61                       # Occupied blocks per task id
system.cpu.icache.tags.age_task_id_blocks_1024::1           58                       # Occupied blocks per task id
system.cpu.icache.tags.age_task_id_blocks_1024::4            9                       # Occupied blocks per task id
system.cpu.icache.tags.occ_task_id_percent::1024            1                       # Percentage of cache occupancy per task id
system.cpu.icache.tags.tag_accesses         115076956                       # Number of tag accesses
system.cpu.icache.tags.data_accesses        115076956                       # Number of data accesses
system.cpu.dtb.walker.pwrStateResidencyTicks::UNDEFINED  95874767000                       # Cumulative time (in ticks) in various power states
system.cpu.interrupts.clk_domain.clock           8000                       # Clock period in ticks
system.cpu.itb_walker_cache.pwrStateResidencyTicks::UNDEFINED  95874767000                       # Cumulative time (in ticks) in various power states
system.cpu.itb_walker_cache.blocked_cycles::no_mshrs            0                       # number of cycles access was blocked
system.cpu.itb_walker_cache.blocked_cycles::no_targets            0                       # number of cycles access was blocked
system.cpu.itb_walker_cache.blocked::no_mshrs            0                       # number of cycles access was blocked
system.cpu.itb_walker_cache.blocked::no_targets            0                       # number of cycles access was blocked
system.cpu.itb_walker_cache.avg_blocked_cycles::no_mshrs          nan                       # average number of cycles each access was blocked
system.cpu.itb_walker_cache.avg_blocked_cycles::no_targets          nan                       # average number of cycles each access was blocked
system.cpu.itb_walker_cache.replacements            0                       # number of replacements
system.cpu.itb_walker_cache.tags.pwrStateResidencyTicks::UNDEFINED  95874767000                       # Cumulative time (in ticks) in various power states
system.cpu.itb_walker_cache.tags.tagsinuse            0                       # Cycle average of tags in use
system.cpu.itb_walker_cache.tags.total_refs            0                       # Total number of references to valid blocks.
system.cpu.itb_walker_cache.tags.sampled_refs            0                       # Sample count of references to valid blocks.
system.cpu.itb_walker_cache.tags.avg_refs          nan                       # Average number of references to valid blocks.
system.cpu.itb_walker_cache.tags.warmup_cycle            0                       # Cycle when the warmup percentage was hit.
system.cpu.itb_walker_cache.tags.tag_accesses            0                       # Number of tag accesses
system.cpu.itb_walker_cache.tags.data_accesses            0                       # Number of data accesses
system.cpu.itb.walker.pwrStateResidencyTicks::UNDEFINED  95874767000                       # Cumulative time (in ticks) in various power states
system.cpu.dtb_walker_cache.pwrStateResidencyTicks::UNDEFINED  95874767000                       # Cumulative time (in ticks) in various power states
system.cpu.dtb_walker_cache.blocked_cycles::no_mshrs            0                       # number of cycles access was blocked
system.cpu.dtb_walker_cache.blocked_cycles::no_targets            0                       # number of cycles access was blocked
system.cpu.dtb_walker_cache.blocked::no_mshrs            0                       # number of cycles access was blocked
system.cpu.dtb_walker_cache.blocked::no_targets            0                       # number of cycles access was blocked
system.cpu.dtb_walker_cache.avg_blocked_cycles::no_mshrs          nan                       # average number of cycles each access was blocked
system.cpu.dtb_walker_cache.avg_blocked_cycles::no_targets          nan                       # average number of cycles each access was blocked
system.cpu.dtb_walker_cache.replacements            0                       # number of replacements
system.cpu.dtb_walker_cache.tags.pwrStateResidencyTicks::UNDEFINED  95874767000                       # Cumulative time (in ticks) in various power states
system.cpu.dtb_walker_cache.tags.tagsinuse            0                       # Cycle average of tags in use
system.cpu.dtb_walker_cache.tags.total_refs            0                       # Total number of references to valid blocks.
system.cpu.dtb_walker_cache.tags.sampled_refs            0                       # Sample count of references to valid blocks.
system.cpu.dtb_walker_cache.tags.avg_refs          nan                       # Average number of references to valid blocks.
system.cpu.dtb_walker_cache.tags.warmup_cycle            0                       # Cycle when the warmup percentage was hit.
system.cpu.dtb_walker_cache.tags.tag_accesses            0                       # Number of tag accesses
system.cpu.dtb_walker_cache.tags.data_accesses            0                       # Number of data accesses
system.cpu.dcache.pwrStateResidencyTicks::UNDEFINED  95874767000                       # Cumulative time (in ticks) in various power states
system.cpu.dcache.demand_hits::.cpu.data     18826827                       # number of demand (read+write) hits
system.cpu.dcache.demand_hits::total         18826827                       # number of demand (read+write) hits
system.cpu.dcache.overall_hits::.cpu.data     18826827                       # number of overall hits
system.cpu.dcache.overall_hits::total        18826827                       # number of overall hits
system.cpu.dcache.demand_misses::.cpu.data       353429                       # number of demand (read+write) misses
system.cpu.dcache.demand_misses::total         353429                       # number of demand (read+write) misses
system.cpu.dcache.overall_misses::.cpu.data       353429                       # number of overall misses
system.cpu.dcache.overall_misses::total        353429                       # number of overall misses
system.cpu.dcache.demand_miss_latency::.cpu.data  19457190500                       # number of demand (read+write) miss cycles
system.cpu.dcache.demand_miss_latency::total  19457190500                       # number of demand (read+write) miss cycles
system.cpu.dcache.overall_miss_latency::.cpu.data  19457190500                       # number of overall miss cycles
system.cpu.dcache.overall_miss_latency::total  19457190500                       # number of overall miss cycles
system.cpu.dcache.demand_accesses::.cpu.data     19180256                       # number of demand (read+write) accesses
system.cpu.dcache.demand_accesses::total     19180256                       # number of demand (read+write) accesses
system.cpu.dcache.overall_accesses::.cpu.data     19180256                       # number of overall (read+write) accesses
system.cpu.dcache.overall_accesses::total     19180256                       # number of overall (read+write) accesses
system.cpu.dcache.demand_miss_rate::.cpu.data     0.018427                       # miss rate for demand accesses
system.cpu.dcache.demand_miss_rate::total     0.018427                       # miss rate for demand accesses
system.cpu.dcache.overall_miss_rate::.cpu.data     0.018427                       # miss rate for overall accesses
system.cpu.dcache.overall_miss_rate::total     0.018427                       # miss rate for overall accesses
system.cpu.dcache.demand_avg_miss_latency::.cpu.data 55052.614528                       # average overall miss latency
system.cpu.dcache.demand_avg_miss_latency::total 55052.614528                       # average overall miss latency
system.cpu.dcache.overall_avg_miss_latency::.cpu.data 55052.614528                       # average overall miss latency
system.cpu.dcache.overall_avg_miss_latency::total 55052.614528                       # average overall miss latency
system.cpu.dcache.blocked_cycles::no_mshrs            0                       # number of cycles access was blocked
system.cpu.dcache.blocked_cycles::no_targets            0                       # number of cycles access was blocked
system.cpu.dcache.blocked::no_mshrs                 0                       # number of cycles access was blocked
system.cpu.dcache.blocked::no_targets               0                       # number of cycles access was blocked
system.cpu.dcache.avg_blocked_cycles::no_mshrs          nan                       # average number of cycles each access was blocked
system.cpu.dcache.avg_blocked_cycles::no_targets          nan                       # average number of cycles each access was blocked
system.cpu.dcache.writebacks::.writebacks        11262                       # number of writebacks
system.cpu.dcache.writebacks::total             11262                       # number of writebacks
system.cpu.dcache.demand_mshr_misses::.cpu.data       353429                       # number of demand (read+write) MSHR misses
system.cpu.dcache.demand_mshr_misses::total       353429                       # number of demand (read+write) MSHR misses
system.cpu.dcache.overall_mshr_misses::.cpu.data       353429                       # number of overall MSHR misses
system.cpu.dcache.overall_mshr_misses::total       353429                       # number of overall MSHR misses
system.cpu.dcache.demand_mshr_miss_latency::.cpu.data  19103761500                       # number of demand (read+write) MSHR miss cycles
system.cpu.dcache.demand_mshr_miss_latency::total  19103761500                       # number of demand (read+write) MSHR miss cycles
system.cpu.dcache.overall_mshr_miss_latency::.cpu.data  19103761500                       # number of overall MSHR miss cycles
system.cpu.dcache.overall_mshr_miss_latency::total  19103761500                       # number of overall MSHR miss cycles
system.cpu.dcache.demand_mshr_miss_rate::.cpu.data     0.018427                       # mshr miss rate for demand accesses
system.cpu.dcache.demand_mshr_miss_rate::total     0.018427                       # mshr miss rate for demand accesses
system.cpu.dcache.overall_mshr_miss_rate::.cpu.data     0.018427                       # mshr miss rate for overall accesses
system.cpu.dcache.overall_mshr_miss_rate::total     0.018427                       # mshr miss rate for overall accesses
system.cpu.dcache.demand_avg_mshr_miss_latency::.cpu.data 54052.614528                       # average overall mshr miss latency
system.cpu.dcache.demand_avg_mshr_miss_latency::total 54052.614528                       # average overall mshr miss latency
system.cpu.dcache.overall_avg_mshr_miss_latency::.cpu.data 54052.614528                       # average overall mshr miss latency
system.cpu.dcache.overall_avg_mshr_miss_latency::total 54052.614528                       # average overall mshr miss latency
system.cpu.dcache.replacements                 353397                       # number of replacements
system.cpu.dcache.ReadReq_hits::.cpu.data     13345341                       # number of ReadReq hits
system.cpu.dcache.ReadReq_hits::total        13345341                       # number of ReadReq hits
system.cpu.dcache.ReadReq_misses::.cpu.data       353083                       # number of ReadReq misses
system.cpu.dcache.ReadReq_misses::total        353083                       # number of ReadReq misses
system.cpu.dcache.ReadReq_miss_latency::.cpu.data  19442865000                       # number of ReadReq miss cycles
system.cpu.dcache.ReadReq_miss_latency::total  19442865000                       # number of ReadReq miss cycles
system.cpu.dcache.ReadReq_accesses::.cpu.data     13698424                       # number of ReadReq accesses(hits+misses)
system.cpu.dcache.ReadReq_accesses::total     13698424                       # number of ReadReq accesses(hits+misses)
system.cpu.dcache.ReadReq_miss_rate::.cpu.data     0.025775                       # miss rate for ReadReq accesses
system.cpu.dcache.ReadReq_miss_rate::total     0.025775                       # miss rate for ReadReq accesses
system.cpu.dcache.ReadReq_avg_miss_latency::.cpu.data 55065.990150                       # average ReadReq miss latency
system.cpu.dcache.ReadReq_avg_miss_latency::total 55065.990150                       # average ReadReq miss latency
system.cpu.dcache.ReadReq_mshr_misses::.cpu.data       353083                       # number of ReadReq MSHR misses
system.cpu.dcache.ReadReq_mshr_misses::total       353083                       # number of ReadReq MSHR misses
system.cpu.dcache.ReadReq_mshr_miss_latency::.cpu.data  19089782000                       # number of ReadReq MSHR miss cycles
system.cpu.dcache.ReadReq_mshr_miss_latency::total  19089782000                       # number of ReadReq MSHR miss cycles
system.cpu.dcache.ReadReq_mshr_miss_rate::.cpu.data     0.025775                       # mshr miss rate for ReadReq accesses
system.cpu.dcache.ReadReq_mshr_miss_rate::total     0.025775                       # mshr miss rate for ReadReq accesses
system.cpu.dcache.ReadReq_avg_mshr_miss_latency::.cpu.data 54065.990150                       # average ReadReq mshr miss latency
system.cpu.dcache.ReadReq_avg_mshr_miss_latency::total 54065.990150                       # average ReadReq mshr miss latency
system.cpu.dcache.WriteReq_hits::.cpu.data      5481486                       # number of WriteReq hits
system.cpu.dcache.WriteReq_hits::total        5481486                       # number of WriteReq hits
system.cpu.dcache.WriteReq_misses::.cpu.data          346                       # number of WriteReq misses
system.cpu.dcache.WriteReq_misses::total          346                       # number of WriteReq misses
system.cpu.dcache.WriteReq_miss_latency::.cpu.data     14325500                       # number of WriteReq miss cycles
system.cpu.dcache.WriteReq_miss_latency::total     14325500                       # number of WriteReq miss cycles
system.cpu.dcache.WriteReq_accesses::.cpu.data      5481832                       # number of WriteReq accesses(hits+misses)
system.cpu.dcache.WriteReq_accesses::total      5481832                       # number of WriteReq accesses(hits+misses)
system.cpu.dcache.WriteReq_miss_rate::.cpu.data     0.000063                       # miss rate for WriteReq accesses
system.cpu.dcache.WriteReq_miss_rate::total     0.000063                       # miss rate for WriteReq accesses
system.cpu.dcache.WriteReq_avg_miss_latency::.cpu.data 41403.179191                       # average WriteReq miss latency
system.cpu.dcache.WriteReq_avg_miss_latency::total 41403.179191                       # average WriteReq miss latency
system.cpu.dcache.WriteReq_mshr_misses::.cpu.data          346                       # number of WriteReq MSHR misses
system.cpu.dcache.WriteReq_mshr_misses::total          346                       # number of WriteReq MSHR misses
system.cpu.dcache.WriteReq_mshr_miss_latency::.cpu.data     13979500                       # number of WriteReq MSHR miss cycles
system.cpu.dcache.WriteReq_mshr_miss_latency::total     13979500                       # number of WriteReq MSHR miss cycles
system.cpu.dcache.WriteReq_mshr_miss_rate::.cpu.data     0.000063                       # mshr miss rate for WriteReq accesses
system.cpu.dcache.WriteReq_mshr_miss_rate::total     0.000063                       # mshr miss rate for WriteReq accesses
system.cpu.dcache.WriteReq_avg_mshr_miss_latency::.cpu.data 40403.179191                       # average WriteReq mshr miss latency
system.cpu.dcache.WriteReq_avg_mshr_miss_latency::total 40403.179191                       # average WriteReq mshr miss latency
system.cpu.dcache.tags.pwrStateResidencyTicks::UNDEFINED  95874767000                       # Cumulative time (in ticks) in various power states
system.cpu.dcache.tags.tagsinuse            31.999103                       # Cycle average of tags in use
system.cpu.dcache.tags.total_refs            19180256                       # Total number of references to valid blocks.
system.cpu.dcache.tags.sampled_refs            353429                       # Sample count of references to valid blocks.
system.cpu.dcache.tags.avg_refs             54.269050                       # Average number of references to valid blocks.
system.cpu.dcache.tags.warmup_cycle            148000                       # Cycle when the warmup percentage was hit.
system.cpu.dcache.tags.occ_blocks::.cpu.data    31.999103                       # Average occupied blocks per requestor
system.cpu.dcache.tags.occ_percent::.cpu.data     0.999972                       # Average percentage of cache occupancy
system.cpu.dcache.tags.occ_percent::total     0.999972                       # Average percentage of cache occupancy
system.cpu.dcache.tags.occ_task_id_blocks::1024           32                       # Occupied blocks per task id
system.cpu.dcache.tags.age_task_id_blocks_1024::0           23                       # Occupied blocks per task id
system.cpu.dcache.tags.age_task_id_blocks_1024::1            9                       # Occupied blocks per task id
system.cpu.dcache.tags.occ_task_id_percent::1024            1                       # Percentage of cache occupancy per task id
system.cpu.dcache.tags.tag_accesses          38713941                       # Number of tag accesses
system.cpu.dcache.tags.data_accesses         38713941                       # Number of data accesses

---------- End Simulation Statistics   ----------
