
---------- Begin Simulation Statistics ----------
final_tick                                77669299000                       # Number of ticks from beginning of simulation (restored from checkpoints and never reset)
host_inst_rate                                 798580                       # Simulator instruction rate (inst/s)
host_mem_usage                                 681284                       # Number of bytes of host memory used
host_op_rate                                  1338945                       # Simulator op (including micro ops) rate (op/s)
host_seconds                                    58.32                       # Real time elapsed on the host
host_tick_rate                             1331679686                       # Simulator tick rate (ticks/s)
sim_freq                                 1000000000000                       # Frequency of simulated ticks
sim_insts                                    46576534                       # Number of instructions simulated
sim_ops                                      78093026                       # Number of ops (including micro ops) simulated
sim_seconds                                  0.077669                       # Number of seconds simulated
sim_ticks                                 77669299000                       # Number of ticks simulated
system.cpu.Branches                           6851974                       # Number of branches fetched
system.cpu.committedInsts                    46576534                       # Number of instructions committed
system.cpu.committedOps                      78093026                       # Number of ops (including micro ops) committed
system.cpu.dtb.rdAccesses                    13698424                       # TLB accesses on read requests
system.cpu.dtb.rdMisses                            13                       # TLB misses on read requests
system.cpu.dtb.wrAccesses                     5481832                       # TLB accesses on write requests
system.cpu.dtb.wrMisses                             9                       # TLB misses on write requests
system.cpu.idle_fraction                     0.000000                       # Percentage of idle cycles
system.cpu.itb.rdAccesses                           0                       # TLB accesses on read requests
system.cpu.itb.rdMisses                             0                       # TLB misses on read requests
system.cpu.itb.wrAccesses                    57538145                       # TLB accesses on write requests
system.cpu.itb.wrMisses                            48                       # TLB misses on write requests
system.cpu.not_idle_fraction                 1.000000                       # Percentage of non-idle cycles
system.cpu.numCycles                        155338598                       # number of cpu cycles simulated
system.cpu.numWorkItemsCompleted                    0                       # number of work items this cpu completed
system.cpu.numWorkItemsStarted                      0                       # number of work items this cpu started
system.cpu.num_busy_cycles               155338597.998000                       # Number of busy cycles
system.cpu.num_cc_register_reads             26041561                       # number of times the CC registers were read
system.cpu.num_cc_register_writes            16446004                       # number of times the CC registers were written
system.cpu.num_conditional_control_insts      4112122                       # number of instructions that are conditional controls
system.cpu.num_fp_alu_accesses                   2071                       # Number of float alu accesses
system.cpu.num_fp_insts                          2071                       # number of float instructions
system.cpu.num_fp_register_reads                 3981                       # number of times the floating registers were read
system.cpu.num_fp_register_writes                1590                       # number of times the floating registers were written
system.cpu.num_func_calls                     2739154                       # number of times a function call or return occured
system.cpu.num_idle_cycles                   0.002000                       # Number of idle cycles
system.cpu.num_int_alu_accesses              78091217                       # Number of integer alu accesses
system.cpu.num_int_insts                     78091217                       # number of integer instructions
system.cpu.num_int_register_reads           178083162                       # number of times the integer registers were read
system.cpu.num_int_register_writes           65757491                       # number of times the integer registers were written
system.cpu.num_load_insts                    13698419                       # Number of load instructions
system.cpu.num_mem_refs                      19180250                       # number of memory refs
system.cpu.num_store_insts                    5481831                       # Number of store instructions
system.cpu.num_vec_alu_accesses                     0                       # Number of vector alu accesses
system.cpu.num_vec_insts                            0                       # number of vector instructions
system.cpu.num_vec_register_reads                   0                       # number of times the vector registers were read
system.cpu.num_vec_register_writes                  0                       # number of times the vector registers were written
system.cpu.op_class::No_OpClass                   114      0.00%      0.00% # Class of executed instruction
system.cpu.op_class::IntAlu                  58911567     75.44%     75.44% # Class of executed instruction
system.cpu.op_class::IntMult                       11      0.00%     75.44% # Class of executed instruction
system.cpu.op_class::IntDiv                        28      0.00%     75.44% # Class of executed instruction
system.cpu.op_class::FloatAdd                      14      0.00%     75.44% # Class of executed instruction
system.cpu.op_class::FloatCmp                       0      0.00%     75.44% # Class of executed instruction
system.cpu.op_class::FloatCvt                       0      0.00%     75.44% # Class of executed instruction
system.cpu.op_class::FloatMult                      0      0.00%     75.44% # Class of executed instruction
system.cpu.op_class::FloatMultAcc                   0      0.00%     75.44% # Class of executed instruction
system.cpu.op_class::FloatDiv                       0      0.00%     75.44% # Class of executed instruction
system.cpu.op_class::FloatMisc                      0      0.00%     75.44% # Class of executed instruction
system.cpu.op_class::FloatSqrt                      0      0.00%     75.44% # Class of executed instruction
system.cpu.op_class::SimdAdd                      374      0.00%     75.44% # Class of executed instruction
system.cpu.op_class::SimdAddAcc                     0      0.00%     75.44% # Class of executed instruction
system.cpu.op_class::SimdAlu                       92      0.00%     75.44% # Class of executed instruction
system.cpu.op_class::SimdCmp                        0      0.00%     75.44% # Class of executed instruction
system.cpu.op_class::SimdCvt                      132      0.00%     75.44% # Class of executed instruction
system.cpu.op_class::SimdMisc                     258      0.00%     75.44% # Class of executed instruction
system.cpu.op_class::SimdMult                       0      0.00%     75.44% # Class of executed instruction
system.cpu.op_class::SimdMultAcc                    0      0.00%     75.44% # Class of executed instruction
system.cpu.op_class::SimdShift                    186      0.00%     75.44% # Class of executed instruction
system.cpu.op_class::SimdShiftAcc                   0      0.00%     75.44% # Class of executed instruction
system.cpu.op_class::SimdDiv                        0      0.00%     75.44% # Class of executed instruction
system.cpu.op_class::SimdSqrt                       0      0.00%     75.44% # Class of executed instruction
system.cpu.op_class::SimdFloatAdd                   0      0.00%     75.44% # Class of executed instruction
system.cpu.op_class::SimdFloatAlu                   0      0.00%     75.44% # Class of executed instruction
system.cpu.op_class::SimdFloatCmp                   0      0.00%     75.44% # Class of executed instruction
system.cpu.op_class::SimdFloatCvt                   0      0.00%     75.44% # Class of executed instruction
system.cpu.op_class::SimdFloatDiv                   0      0.00%     75.44% # Class of executed instruction
system.cpu.op_class::SimdFloatMisc                  0      0.00%     75.44% # Class of executed instruction
system.cpu.op_class::SimdFloatMult                  0      0.00%     75.44% # Class of executed instruction
system.cpu.op_class::SimdFloatMultAcc               0      0.00%     75.44% # Class of executed instruction
system.cpu.op_class::SimdFloatSqrt                  0      0.00%     75.44% # Class of executed instruction
system.cpu.op_class::SimdReduceAdd                  0      0.00%     75.44% # Class of executed instruction
system.cpu.op_class::SimdReduceAlu                  0      0.00%     75.44% # Class of executed instruction
system.cpu.op_class::SimdReduceCmp                  0      0.00%     75.44% # Class of executed instruction
system.cpu.op_class::SimdFloatReduceAdd             0      0.00%     75.44% # Class of executed instruction
system.cpu.op_class::SimdFloatReduceCmp             0      0.00%     75.44% # Class of executed instruction
system.cpu.op_class::SimdAes                        0      0.00%     75.44% # Class of executed instruction
system.cpu.op_class::SimdAesMix                     0      0.00%     75.44% # Class of executed instruction
system.cpu.op_class::SimdSha1Hash                   0      0.00%     75.44% # Class of executed instruction
system.cpu.op_class::SimdSha1Hash2                  0      0.00%     75.44% # Class of executed instruction
system.cpu.op_class::SimdSha256Hash                 0      0.00%     75.44% # Class of executed instruction
system.cpu.op_class::SimdSha256Hash2                0      0.00%     75.44% # Class of executed instruction
system.cpu.op_class::SimdShaSigma2                  0      0.00%     75.44% # Class of executed instruction
system.cpu.op_class::SimdShaSigma3                  0      0.00%     75.44% # Class of executed instruction
system.cpu.op_class::SimdPredAlu                    0      0.00%     75.44% # Class of executed instruction
system.cpu.op_class::MemRead                 13698345     17.54%     92.98% # Class of executed instruction
system.cpu.op_class::MemWrite                 5481414      7.02%    100.00% # Class of executed instruction
system.cpu.op_class::FloatMemRead                  74      0.00%    100.00% # Class of executed instruction
system.cpu.op_class::FloatMemWrite                417      0.00%    100.00% # Class of executed instruction
system.cpu.op_class::IprAccess                      0      0.00%    100.00% # Class of executed instruction
system.cpu.op_class::InstPrefetch                   0      0.00%    100.00% # Class of executed instruction
system.cpu.op_class::total                   78093026                       # Class of executed instruction
system.cpu.workload.numSyscalls                   184                       # Number of system calls
system.membus.snoop_filter.hit_multi_requests            0                       # Number of requests hitting in the snoop filter with multiple (>1) holders of the requested data.
system.membus.snoop_filter.hit_multi_snoops            0                       # Number of snoops hitting in the snoop filter with multiple (>1) holders of the requested data.
system.membus.snoop_filter.hit_single_requests        15488                       # Number of requests hitting in the snoop filter with a single holder of the requested data.
system.membus.snoop_filter.hit_single_snoops            0                       # Number of snoops hitting in the snoop filter with a single holder of the requested data.
system.membus.snoop_filter.tot_requests         31353                       # Total number of requests made to the snoop filter.
system.membus.snoop_filter.tot_snoops               0                       # Total number of snoops made to the snoop filter.
system.membus.pwrStateResidencyTicks::UNDEFINED  77669299000                       # Cumulative time (in ticks) in various power states
system.membus.trans_dist::ReadResp              15556                       # Transaction distribution
system.membus.trans_dist::WritebackDirty          489                       # Transaction distribution
system.membus.trans_dist::WritebackClean          340                       # Transaction distribution
system.membus.trans_dist::CleanEvict            14659                       # Transaction distribution
system.membus.trans_dist::ReadExReq               309                       # Transaction distribution
system.membus.trans_dist::ReadExResp              309                       # Transaction distribution
system.membus.trans_dist::ReadCleanReq            589                       # Transaction distribution
system.membus.trans_dist::ReadSharedReq         14967                       # Transaction distribution
system.membus.pkt_count_system.cpu.icache.mem_side::system.mem_ctrls.port         1518                       # Packet count per connected master and slave (bytes)
system.membus.pkt_count_system.cpu.icache.mem_side::total         1518                       # Packet count per connected master and slave (bytes)
system.membus.pkt_count_system.cpu.dcache.mem_side::system.mem_ctrls.port        45700                       # Packet count per connected master and slave (bytes)
system.membus.pkt_count_system.cpu.dcache.mem_side::total        45700                       # Packet count per connected master and slave (bytes)
system.membus.pkt_count::total                  47218                       # Packet count per connected master and slave (bytes)
system.membus.pkt_size_system.cpu.icache.mem_side::system.mem_ctrls.port        59456                       # Cumulative packet size per connected master and slave (bytes)
system.membus.pkt_size_system.cpu.icache.mem_side::total        59456                       # Cumulative packet size per connected master and slave (bytes)
system.membus.pkt_size_system.cpu.dcache.mem_side::system.mem_ctrls.port      1008960                       # Cumulative packet size per connected master and slave (bytes)
system.membus.pkt_size_system.cpu.dcache.mem_side::total      1008960                       # Cumulative packet size per connected master and slave (bytes)
system.membus.pkt_size::total                 1068416                       # Cumulative packet size per connected master and slave (bytes)
system.membus.snoops                                0                       # Total snoops (count)
system.membus.snoopTraffic                          0                       # Total snoop traffic (bytes)
system.membus.snoop_fanout::samples             15865                       # Request fanout histogram
system.membus.snoop_fanout::mean                    0                       # Request fanout histogram
system.membus.snoop_fanout::stdev                   0                       # Request fanout histogram
system.membus.snoop_fanout::underflows              0      0.00%      0.00% # Request fanout histogram
system.membus.snoop_fanout::0                   15865    100.00%    100.00% # Request fanout histogram
system.membus.snoop_fanout::1                       0      0.00%    100.00% # Request fanout histogram
system.membus.snoop_fanout::2                       0      0.00%    100.00% # Request fanout histogram
system.membus.snoop_fanout::3                       0      0.00%    100.00% # Request fanout histogram
system.membus.snoop_fanout::4                       0      0.00%    100.00% # Request fanout histogram
system.membus.snoop_fanout::overflows               0      0.00%    100.00% # Request fanout histogram
system.membus.snoop_fanout::min_value               0                       # Request fanout histogram
system.membus.snoop_fanout::max_value               0                       # Request fanout histogram
system.membus.snoop_fanout::total               15865                       # Request fanout histogram
system.membus.reqLayer2.occupancy            34669500                       # Layer occupancy (ticks)
system.membus.reqLayer2.utilization               0.0                       # Layer utilization (%)
system.membus.respLayer1.occupancy            3131000                       # Layer occupancy (ticks)
system.membus.respLayer1.utilization              0.0                       # Layer utilization (%)
system.membus.respLayer2.occupancy           81841750                       # Layer occupancy (ticks)
system.membus.respLayer2.utilization              0.1                       # Layer utilization (%)
system.voltage_domain.voltage                       1                       # Voltage in Volts
system.clk_domain.clock                          1000                       # Clock period in ticks
system.cpu_voltage_domain.voltage                   1                       # Voltage in Volts
system.mem_ctrls.pwrStateResidencyTicks::UNDEFINED  77669299000                       # Cumulative time (in ticks) in various power states
system.mem_ctrls.bytes_read::.cpu.inst          37696                       # Number of bytes read from this memory
system.mem_ctrls.bytes_read::.cpu.data         977664                       # Number of bytes read from this memory
system.mem_ctrls.bytes_read::total            1015360                       # Number of bytes read from this memory
system.mem_ctrls.bytes_inst_read::.cpu.inst        37696                       # Number of instructions bytes read from this memory
system.mem_ctrls.bytes_inst_read::total         37696                       # Number of instructions bytes read from this memory
system.mem_ctrls.bytes_written::.writebacks        31296                       # Number of bytes written to this memory
system.mem_ctrls.bytes_written::total           31296                       # Number of bytes written to this memory
system.mem_ctrls.num_reads::.cpu.inst             589                       # Number of read requests responded to by this memory
system.mem_ctrls.num_reads::.cpu.data           15276                       # Number of read requests responded to by this memory
system.mem_ctrls.num_reads::total               15865                       # Number of read requests responded to by this memory
system.mem_ctrls.num_writes::.writebacks          489                       # Number of write requests responded to by this memory
system.mem_ctrls.num_writes::total                489                       # Number of write requests responded to by this memory
system.mem_ctrls.bw_read::.cpu.inst            485340                       # Total read bandwidth from this memory (bytes/s)
system.mem_ctrls.bw_read::.cpu.data          12587522                       # Total read bandwidth from this memory (bytes/s)
system.mem_ctrls.bw_read::total              13072862                       # Total read bandwidth from this memory (bytes/s)
system.mem_ctrls.bw_inst_read::.cpu.inst       485340                       # Instruction read bandwidth from this memory (bytes/s)
system.mem_ctrls.bw_inst_read::total           485340                       # Instruction read bandwidth from this memory (bytes/s)
system.mem_ctrls.bw_write::.writebacks         402939                       # Write bandwidth from this memory (bytes/s)
system.mem_ctrls.bw_write::total               402939                       # Write bandwidth from this memory (bytes/s)
system.mem_ctrls.bw_total::.writebacks         402939                       # Total bandwidth to/from this memory (bytes/s)
system.mem_ctrls.bw_total::.cpu.inst           485340                       # Total bandwidth to/from this memory (bytes/s)
system.mem_ctrls.bw_total::.cpu.data         12587522                       # Total bandwidth to/from this memory (bytes/s)
system.mem_ctrls.bw_total::total             13475801                       # Total bandwidth to/from this memory (bytes/s)
system.mem_ctrls.avgPriority_.writebacks::samples       493.00                       # Average QoS priority value for accepted requests
system.mem_ctrls.avgPriority_.cpu.inst::samples       571.00                       # Average QoS priority value for accepted requests
system.mem_ctrls.avgPriority_.cpu.data::samples     14424.00                       # Average QoS priority value for accepted requests
system.mem_ctrls.priorityMinLatency      0.000000018750                       # per QoS priority minimum request to response latency (s)
system.mem_ctrls.priorityMaxLatency      0.154876828500                       # per QoS priority maximum request to response latency (s)
system.mem_ctrls.numReadWriteTurnArounds           28                       # Number of turnarounds from READ to WRITE
system.mem_ctrls.numWriteReadTurnArounds           29                       # Number of turnarounds from WRITE to READ
system.mem_ctrls.numStayReadState               50746                       # Number of times bus staying in READ state
system.mem_ctrls.numStayWriteState                440                       # Number of times bus staying in WRITE state
system.mem_ctrls.readReqs                       15865                       # Number of read requests accepted
system.mem_ctrls.writeReqs                        829                       # Number of write requests accepted
system.mem_ctrls.readBursts                     15865                       # Number of DRAM read bursts, including those serviced by the write queue
system.mem_ctrls.writeBursts                      829                       # Number of DRAM write bursts, including those merged in the write queue
system.mem_ctrls.servicedByWrQ                    870                       # Number of DRAM read bursts serviced by the write queue
system.mem_ctrls.mergedWrBursts                   336                       # Number of DRAM write bursts merged with an existing one
system.mem_ctrls.neitherReadNorWriteReqs            0                       # Number of requests that are neither read nor write
system.mem_ctrls.perBankRdBursts::0               165                       # Per bank write bursts
system.mem_ctrls.perBankRdBursts::1               246                       # Per bank write bursts
system.mem_ctrls.perBankRdBursts::2             13585                       # Per bank write bursts
system.mem_ctrls.perBankRdBursts::3                 9                       # Per bank write bursts
system.mem_ctrls.perBankRdBursts::4                12                       # Per bank write bursts
system.mem_ctrls.perBankRdBursts::5                 6                       # Per bank write bursts
system.mem_ctrls.perBankRdBursts::6                59                       # Per bank write bursts
system.mem_ctrls.perBankRdBursts::7                43                       # Per bank write bursts
system.mem_ctrls.perBankRdBursts::8                16                       # Per bank write bursts
system.mem_ctrls.perBankRdBursts::9                26                       # Per bank write bursts
system.mem_ctrls.perBankRdBursts::10               53                       # Per bank write bursts
system.mem_ctrls.perBankRdBursts::11               79                       # Per bank write bursts
system.mem_ctrls.perBankRdBursts::12               36                       # Per bank write bursts
system.mem_ctrls.perBankRdBursts::13              157                       # Per bank write bursts
system.mem_ctrls.perBankRdBursts::14              427                       # Per bank write bursts
system.mem_ctrls.perBankRdBursts::15               76                       # Per bank write bursts
system.mem_ctrls.perBankWrBursts::0                64                       # Per bank write bursts
system.mem_ctrls.perBankWrBursts::1                53                       # Per bank write bursts
system.mem_ctrls.perBankWrBursts::2                21                       # Per bank write bursts
system.mem_ctrls.perBankWrBursts::3                 3                       # Per bank write bursts
system.mem_ctrls.perBankWrBursts::4                 3                       # Per bank write bursts
system.mem_ctrls.perBankWrBursts::5                 4                       # Per bank write bursts
system.mem_ctrls.perBankWrBursts::6                41                       # Per bank write bursts
system.mem_ctrls.perBankWrBursts::7                22                       # Per bank write bursts
system.mem_ctrls.perBankWrBursts::8                 6                       # Per bank write bursts
system.mem_ctrls.perBankWrBursts::9                19                       # Per bank write bursts
system.mem_ctrls.perBankWrBursts::10               20                       # Per bank write bursts
system.mem_ctrls.perBankWrBursts::11               25                       # Per bank write bursts
system.mem_ctrls.perBankWrBursts::12               10                       # Per bank write bursts
system.mem_ctrls.perBankWrBursts::13               86                       # Per bank write bursts
system.mem_ctrls.perBankWrBursts::14               55                       # Per bank write bursts
system.mem_ctrls.perBankWrBursts::15               37                       # Per bank write bursts
system.mem_ctrls.avgRdQLen                       1.00                       # Average read queue length when enqueuing
system.mem_ctrls.avgWrQLen                      26.97                       # Average write queue length when enqueuing
system.mem_ctrls.totQLat                    178874000                       # Total ticks spent queuing
system.mem_ctrls.totBusLat                   74975000                       # Total ticks spent in databus transfers
system.mem_ctrls.totMemAccLat               460030250                       # Total ticks spent from burst creation until serviced by the DRAM
system.mem_ctrls.avgQLat                     11928.91                       # Average queueing delay per DRAM burst
system.mem_ctrls.avgBusLat                    5000.00                       # Average bus latency per DRAM burst
system.mem_ctrls.avgMemAccLat                30678.91                       # Average memory access latency per DRAM burst
system.mem_ctrls.numRdRetry                         0                       # Number of times read queue was full causing retry
system.mem_ctrls.numWrRetry                         0                       # Number of times write queue was full causing retry
system.mem_ctrls.readRowHits                     7342                       # Number of row buffer hits during reads
system.mem_ctrls.writeRowHits                     370                       # Number of row buffer hits during writes
system.mem_ctrls.readRowHitRate                 48.96                       # Row buffer hit rate for reads
system.mem_ctrls.writeRowHitRate                75.05                       # Row buffer hit rate for writes
system.mem_ctrls.readPktSize::0                     0                       # Read request sizes (log2)
system.mem_ctrls.readPktSize::1                     0                       # Read request sizes (log2)
system.mem_ctrls.readPktSize::2                     0                       # Read request sizes (log2)
system.mem_ctrls.readPktSize::3                     0                       # Read request sizes (log2)
system.mem_ctrls.readPktSize::4                     0                       # Read request sizes (log2)
system.mem_ctrls.readPktSize::5                     0                       # Read request sizes (log2)
system.mem_ctrls.readPktSize::6                 15865                       # Read request sizes (log2)
system.mem_ctrls.writePktSize::0                    0                       # Write request sizes (log2)
system.mem_ctrls.writePktSize::1                    0                       # Write request sizes (log2)
system.mem_ctrls.writePktSize::2                    0                       # Write request sizes (log2)
system.mem_ctrls.writePktSize::3                    0                       # Write request sizes (log2)
system.mem_ctrls.writePktSize::4                    0                       # Write request sizes (log2)
system.mem_ctrls.writePktSize::5                    0                       # Write request sizes (log2)
system.mem_ctrls.writePktSize::6                  829                       # Write request sizes (log2)
system.mem_ctrls.rdQLenPdf::0                   14995                       # What read queue length does an incoming req see
system.mem_ctrls.rdQLenPdf::1                       0                       # What read queue length does an incoming req see
system.mem_ctrls.rdQLenPdf::2                       0                       # What read queue length does an incoming req see
system.mem_ctrls.rdQLenPdf::3                       0                       # What read queue length does an incoming req see
system.mem_ctrls.rdQLenPdf::4                       0                       # What read queue length does an incoming req see
system.mem_ctrls.rdQLenPdf::5                       0                       # What read queue length does an incoming req see
system.mem_ctrls.rdQLenPdf::6                       0                       # What read queue length does an incoming req see
system.mem_ctrls.rdQLenPdf::7                       0                       # What read queue length does an incoming req see
system.mem_ctrls.rdQLenPdf::8                       0                       # What read queue length does an incoming req see
system.mem_ctrls.rdQLenPdf::9                       0                       # What read queue length does an incoming req see
system.mem_ctrls.rdQLenPdf::10                      0                       # What read queue length does an incoming req see
system.mem_ctrls.rdQLenPdf::11                      0                       # What read queue length does an incoming req see
system.mem_ctrls.rdQLenPdf::12                      0                       # What read queue length does an incoming req see
system.mem_ctrls.rdQLenPdf::13                      0                       # What read queue length does an incoming req see
system.mem_ctrls.rdQLenPdf::14                      0                       # What read queue length does an incoming req see
system.mem_ctrls.rdQLenPdf::15                      0                       # What read queue length does an incoming req see
system.mem_ctrls.rdQLenPdf::16                      0                       # What read queue length does an incoming req see
system.mem_ctrls.rdQLenPdf::17                      0                       # What read queue length does an incoming req see
system.mem_ctrls.rdQLenPdf::18                      0                       # What read queue length does an incoming req see
system.mem_ctrls.rdQLenPdf::19                      0                       # What read queue length does an incoming req see
system.mem_ctrls.rdQLenPdf::20                      0                       # What read queue length does an incoming req see
system.mem_ctrls.rdQLenPdf::21                      0                       # What read queue length does an incoming req see
system.mem_ctrls.rdQLenPdf::22                      0                       # What read queue length does an incoming req see
system.mem_ctrls.rdQLenPdf::23                      0                       # What read queue length does an incoming req see
system.mem_ctrls.rdQLenPdf::24                      0                       # What read queue length does an incoming req see
system.mem_ctrls.rdQLenPdf::25                      0                       # What read queue length does an incoming req see
system.mem_ctrls.rdQLenPdf::26                      0                       # What read queue length does an incoming req see
system.mem_ctrls.rdQLenPdf::27                      0                       # What read queue length does an incoming req see
system.mem_ctrls.rdQLenPdf::28                      0                       # What read queue length does an incoming req see
system.mem_ctrls.rdQLenPdf::29                      0                       # What read queue length does an incoming req see
system.mem_ctrls.rdQLenPdf::30                      0                       # What read queue length does an incoming req see
system.mem_ctrls.rdQLenPdf::31                      0                       # What read queue length does an incoming req see
system.mem_ctrls.wrQLenPdf::0                       1                       # What write queue length does an incoming req see
system.mem_ctrls.wrQLenPdf::1                       1                       # What write queue length does an incoming req see
system.mem_ctrls.wrQLenPdf::2                       1                       # What write queue length does an incoming req see
system.mem_ctrls.wrQLenPdf::3                       1                       # What write queue length does an incoming req see
system.mem_ctrls.wrQLenPdf::4                       1                       # What write queue length does an incoming req see
system.mem_ctrls.wrQLenPdf::5                       1                       # What write queue length does an incoming req see
system.mem_ctrls.wrQLenPdf::6                       1                       # What write queue length does an incoming req see
system.mem_ctrls.wrQLenPdf::7                       1                       # What write queue length does an incoming req see
system.mem_ctrls.wrQLenPdf::8                       1                       # What write queue length does an incoming req see
system.mem_ctrls.wrQLenPdf::9                       1                       # What write queue length does an incoming req see
system.mem_ctrls.wrQLenPdf::10                      1                       # What write queue length does an incoming req see
system.mem_ctrls.wrQLenPdf::11                      1                       # What write queue length does an incoming req see
system.mem_ctrls.wrQLenPdf::12                      1                       # What write queue length does an incoming req see
system.mem_ctrls.wrQLenPdf::13                      1                       # What write queue length does an incoming req see
system.mem_ctrls.wrQLenPdf::14                      1                       # What write queue length does an incoming req see
system.mem_ctrls.wrQLenPdf::15                      7                       # What write queue length does an incoming req see
system.mem_ctrls.wrQLenPdf::16                      7                       # What write queue length does an incoming req see
system.mem_ctrls.wrQLenPdf::17                     29                       # What write queue length does an incoming req see
system.mem_ctrls.wrQLenPdf::18                     29                       # What write queue length does an incoming req see
system.mem_ctrls.wrQLenPdf::19                     29                       # What write queue length does an incoming req see
system.mem_ctrls.wrQLenPdf::20                     29                       # What write queue length does an incoming req see
system.mem_ctrls.wrQLenPdf::21                     29                       # What write queue length does an incoming req see
system.mem_ctrls.wrQLenPdf::22                     29                       # What write queue length does an incoming req see
system.mem_ctrls.wrQLenPdf::23                     29                       # What write queue length does an incoming req see
system.mem_ctrls.wrQLenPdf::24                     29                       # What write queue length does an incoming req see
system.mem_ctrls.wrQLenPdf::25                     29                       # What write queue length does an incoming req see
system.mem_ctrls.wrQLenPdf::26                     29                       # What write queue length does an incoming req see
system.mem_ctrls.wrQLenPdf::27                     29                       # What write queue length does an incoming req see
system.mem_ctrls.wrQLenPdf::28                     29                       # What write queue length does an incoming req see
system.mem_ctrls.wrQLenPdf::29                     29                       # What write queue length does an incoming req see
system.mem_ctrls.wrQLenPdf::30                     29                       # What write queue length does an incoming req see
system.mem_ctrls.wrQLenPdf::31                     29                       # What write queue length does an incoming req see
system.mem_ctrls.wrQLenPdf::32                     29                       # What write queue length does an incoming req see
system.mem_ctrls.wrQLenPdf::33                      0                       # What write queue length does an incoming req see
system.mem_ctrls.wrQLenPdf::34                      0                       # What write queue length does an incoming req see
system.mem_ctrls.wrQLenPdf::35                      0                       # What write queue length does an incoming req see
system.mem_ctrls.wrQLenPdf::36                      0                       # What write queue length does an incoming req see
system.mem_ctrls.wrQLenPdf::37                      0                       # What write queue length does an incoming req see
system.mem_ctrls.wrQLenPdf::38                      0                       # What write queue length does an incoming req see
system.mem_ctrls.wrQLenPdf::39                      0                       # What write queue length does an incoming req see
system.mem_ctrls.wrQLenPdf::40                      0                       # What write queue length does an incoming req see
system.mem_ctrls.wrQLenPdf::41                      0                       # What write queue length does an incoming req see
system.mem_ctrls.wrQLenPdf::42                      0                       # What write queue length does an incoming req see
system.mem_ctrls.wrQLenPdf::43                      0                       # What write queue length does an incoming req see
system.mem_ctrls.wrQLenPdf::44                      0                       # What write queue length does an incoming req see
system.mem_ctrls.wrQLenPdf::45                      0                       # What write queue length does an incoming req see
system.mem_ctrls.wrQLenPdf::46                      0                       # What write queue length does an incoming req see
system.mem_ctrls.wrQLenPdf::47                      0                       # What write queue length does an incoming req see
system.mem_ctrls.wrQLenPdf::48                      0                       # What write queue length does an incoming req see
system.mem_ctrls.wrQLenPdf::49                      0                       # What write queue length does an incoming req see
system.mem_ctrls.wrQLenPdf::50                      0                       # What write queue length does an incoming req see
system.mem_ctrls.wrQLenPdf::51                      0                       # What write queue length does an incoming req see
system.mem_ctrls.wrQLenPdf::52                      0                       # What write queue length does an incoming req see
system.mem_ctrls.wrQLenPdf::53                      0                       # What write queue length does an incoming req see
system.mem_ctrls.wrQLenPdf::54                      0                       # What write queue length does an incoming req see
system.mem_ctrls.wrQLenPdf::55                      0                       # What write queue length does an incoming req see
system.mem_ctrls.wrQLenPdf::56                      0                       # What write queue length does an incoming req see
system.mem_ctrls.wrQLenPdf::57                      0                       # What write queue length does an incoming req see
system.mem_ctrls.wrQLenPdf::58                      0                       # What write queue length does an incoming req see
system.mem_ctrls.wrQLenPdf::59                      0                       # What write queue length does an incoming req see
system.mem_ctrls.wrQLenPdf::60                      0                       # What write queue length does an incoming req see
system.mem_ctrls.wrQLenPdf::61                      0                       # What write queue length does an incoming req see
system.mem_ctrls.wrQLenPdf::62                      0                       # What write queue length does an incoming req see
system.mem_ctrls.wrQLenPdf::63                      0                       # What write queue length does an incoming req see
system.mem_ctrls.bytesPerActivate::samples         7747                       # Bytes accessed per row activation
system.mem_ctrls.bytesPerActivate::mean    127.570414                       # Bytes accessed per row activation
system.mem_ctrls.bytesPerActivate::gmean   118.352271                       # Bytes accessed per row activation
system.mem_ctrls.bytesPerActivate::stdev    68.639099                       # Bytes accessed per row activation
system.mem_ctrls.bytesPerActivate::0-127         1522     19.65%     19.65% # Bytes accessed per row activation
system.mem_ctrls.bytesPerActivate::128-255         6101     78.75%     98.40% # Bytes accessed per row activation
system.mem_ctrls.bytesPerActivate::256-383           47      0.61%     99.01% # Bytes accessed per row activation
system.mem_ctrls.bytesPerActivate::384-511           26      0.34%     99.34% # Bytes accessed per row activation
system.mem_ctrls.bytesPerActivate::512-639            9      0.12%     99.46% # Bytes accessed per row activation
system.mem_ctrls.bytesPerActivate::640-767           15      0.19%     99.65% # Bytes accessed per row activation
system.mem_ctrls.bytesPerActivate::768-895            6      0.08%     99.73% # Bytes accessed per row activation
system.mem_ctrls.bytesPerActivate::896-1023            8      0.10%     99.83% # Bytes accessed per row activation
system.mem_ctrls.bytesPerActivate::1024-1151           13      0.17%    100.00% # Bytes accessed per row activation
system.mem_ctrls.bytesPerActivate::total         7747                       # Bytes accessed per row activation
system.mem_ctrls.rdPerTurnAround::samples           29                       # Reads before turning the bus around for writes
system.mem_ctrls.rdPerTurnAround::mean     517.068966                       # Reads before turning the bus around for writes
system.mem_ctrls.rdPerTurnAround::gmean     33.944324                       # Reads before turning the bus around for writes
system.mem_ctrls.rdPerTurnAround::stdev   2595.894147                       # Reads before turning the bus around for writes
system.mem_ctrls.rdPerTurnAround::0-511            28     96.55%     96.55% # Reads before turning the bus around for writes
system.mem_ctrls.rdPerTurnAround::13824-14335            1      3.45%    100.00% # Reads before turning the bus around for writes
system.mem_ctrls.rdPerTurnAround::total            29                       # Reads before turning the bus around for writes
system.mem_ctrls.wrPerTurnAround::samples           28                       # Writes before turning the bus around for reads
system.mem_ctrls.wrPerTurnAround::mean      16.428571                       # Writes before turning the bus around for reads
system.mem_ctrls.wrPerTurnAround::gmean     16.408967                       # Writes before turning the bus around for reads
system.mem_ctrls.wrPerTurnAround::stdev      0.835711                       # Writes before turning the bus around for reads
system.mem_ctrls.wrPerTurnAround::16               22     78.57%     78.57% # Writes before turning the bus around for reads
system.mem_ctrls.wrPerTurnAround::18                6     21.43%    100.00% # Writes before turning the bus around for reads
system.mem_ctrls.wrPerTurnAround::total            28                       # Writes before turning the bus around for reads
system.mem_ctrls.bytesReadDRAM                 959680                       # Total number of bytes read from DRAM
system.mem_ctrls.bytesReadWrQ                   55680                       # Total number of bytes read from write queue
system.mem_ctrls.bytesWritten                   30016                       # Total number of bytes written to DRAM
system.mem_ctrls.bytesReadSys                 1015360                       # Total read bytes from the system interface side
system.mem_ctrls.bytesWrittenSys                53056                       # Total written bytes from the system interface side
system.mem_ctrls.avgRdBW                        12.36                       # Average DRAM read bandwidth in MiByte/s
system.mem_ctrls.avgWrBW                         0.39                       # Average achieved write bandwidth in MiByte/s
system.mem_ctrls.avgRdBWSys                     13.07                       # Average system read bandwidth in MiByte/s
system.mem_ctrls.avgWrBWSys                      0.68                       # Average system write bandwidth in MiByte/s
system.mem_ctrls.peakBW                      12800.00                       # Theoretical peak bandwidth in MiByte/s
system.mem_ctrls.busUtil                         0.10                       # Data bus utilization in percentage
system.mem_ctrls.busUtilRead                     0.10                       # Data bus utilization in percentage for reads
system.mem_ctrls.busUtilWrite                    0.00                       # Data bus utilization in percentage for writes
system.mem_ctrls.totGap                   77669284000                       # Total gap between requests
system.mem_ctrls.avgGap                    4652526.90                       # Average gap between requests
system.mem_ctrls.masterReadBytes::.cpu.inst        36544                       # Per-master bytes read from memory
system.mem_ctrls.masterReadBytes::.cpu.data       923136                       # Per-master bytes read from memory
system.mem_ctrls.masterWriteBytes::.writebacks        30016                       # Per-master bytes write to memory
system.mem_ctrls.masterReadRate::.cpu.inst 470507.658373484272                       # Per-master bytes read from memory rate (Bytes/sec)
system.mem_ctrls.masterReadRate::.cpu.data 11885468.413973970339                       # Per-master bytes read from memory rate (Bytes/sec)
system.mem_ctrls.masterWriteRate::.writebacks 386459.004863684939                       # Per-master bytes write to memory rate (Bytes/sec)
system.mem_ctrls.masterReadAccesses::.cpu.inst          589                       # Per-master read serviced memory accesses
system.mem_ctrls.masterReadAccesses::.cpu.data        15276                       # Per-master read serviced memory accesses
system.mem_ctrls.masterWriteAccesses::.writebacks          829                       # Per-master write serviced memory accesses
system.mem_ctrls.masterReadTotalLat::.cpu.inst     15426000                       # Per-master read total memory access latency
system.mem_ctrls.masterReadTotalLat::.cpu.data    444604250                       # Per-master read total memory access latency
system.mem_ctrls.masterWriteTotalLat::.writebacks 2094488264750                       # Per-master write total memory access latency
system.mem_ctrls.masterReadAvgLat::.cpu.inst     26190.15                       # Per-master read average memory access latency
system.mem_ctrls.masterReadAvgLat::.cpu.data     29104.76                       # Per-master read average memory access latency
system.mem_ctrls.masterWriteAvgLat::.writebacks 2526523841.68                       # Per-master write average memory access latency
system.mem_ctrls.pageHitRate                    49.79                       # Row buffer hit rate, read and write combined
system.mem_ctrls.rank1.actEnergy              2591820                       # Energy for activate commands per rank (pJ)
system.mem_ctrls.rank1.preEnergy              1358610                       # Energy for precharge commands per rank (pJ)
system.mem_ctrls.rank1.readEnergy             6211800                       # Energy for read commands per rank (pJ)
system.mem_ctrls.rank1.writeEnergy            1315440                       # Energy for write commands per rank (pJ)
system.mem_ctrls.rank1.refreshEnergy     6131034000.000001                       # Energy for refresh commands per rank (pJ)
system.mem_ctrls.rank1.actBackEnergy       1460938500                       # Energy for active background per rank (pJ)
system.mem_ctrls.rank1.preBackEnergy      28594747200                       # Energy for precharge background per rank (pJ)
system.mem_ctrls.rank1.actPowerDownEnergy            0                       # Energy for active power-down per rank (pJ)
system.mem_ctrls.rank1.prePowerDownEnergy            0                       # Energy for precharge power-down per rank (pJ)
system.mem_ctrls.rank1.selfRefreshEnergy            0                       # Energy for self refresh per rank (pJ)
system.mem_ctrls.rank1.totalEnergy        36198197370                       # Total energy per rank (pJ)
system.mem_ctrls.rank1.averagePower        466.055415                       # Core power per rank (mW)
system.mem_ctrls.rank1.totalIdleTime                0                       # Total Idle time Per DRAM Rank
system.mem_ctrls.rank1.memoryStateTime::IDLE  74325652750                       # Time in different power states
system.mem_ctrls.rank1.memoryStateTime::REF   2593500000                       # Time in different power states
system.mem_ctrls.rank1.memoryStateTime::SREF            0                       # Time in different power states
system.mem_ctrls.rank1.memoryStateTime::PRE_PDN            0                       # Time in different power states
system.mem_ctrls.rank1.memoryStateTime::ACT    750146250                       # Time in different power states
system.mem_ctrls.rank1.memoryStateTime::ACT_PDN            0                       # Time in different power states
system.mem_ctrls.rank0.actEnergy             52757460                       # Energy for activate commands per rank (pJ)
system.mem_ctrls.rank0.preEnergy             28037460                       # Energy for precharge commands per rank (pJ)
system.mem_ctrls.rank0.readEnergy           100852500                       # Energy for read commands per rank (pJ)
system.mem_ctrls.rank0.writeEnergy            1101420                       # Energy for write commands per rank (pJ)
system.mem_ctrls.rank0.refreshEnergy     6131034000.000001                       # Energy for refresh commands per rank (pJ)
system.mem_ctrls.rank0.actBackEnergy      19148647830                       # Energy for active background per rank (pJ)
system.mem_ctrls.rank0.preBackEnergy      13699834080                       # Energy for precharge background per rank (pJ)
system.mem_ctrls.rank0.actPowerDownEnergy            0                       # Energy for active power-down per rank (pJ)
system.mem_ctrls.rank0.prePowerDownEnergy            0                       # Energy for precharge power-down per rank (pJ)
system.mem_ctrls.rank0.selfRefreshEnergy            0                       # Energy for self refresh per rank (pJ)
system.mem_ctrls.rank0.totalEnergy        39162264750                       # Total energy per rank (pJ)
system.mem_ctrls.rank0.averagePower        504.218079                       # Core power per rank (mW)
system.mem_ctrls.rank0.totalIdleTime                0                       # Total Idle time Per DRAM Rank
system.mem_ctrls.rank0.memoryStateTime::IDLE  35437646250                       # Time in different power states
system.mem_ctrls.rank0.memoryStateTime::REF   2593500000                       # Time in different power states
system.mem_ctrls.rank0.memoryStateTime::SREF            0                       # Time in different power states
system.mem_ctrls.rank0.memoryStateTime::PRE_PDN            0                       # Time in different power states
system.mem_ctrls.rank0.memoryStateTime::ACT  39638152750                       # Time in different power states
system.mem_ctrls.rank0.memoryStateTime::ACT_PDN            0                       # Time in different power states
system.cpu_clk_domain.clock                       500                       # Clock period in ticks
system.cpu.numPwrStateTransitions                   1                       # Number of power state transitions
system.cpu.pwrStateResidencyTicks::ON     77669299000                       # Cumulative time (in ticks) in various power states
system.cpu.icache.pwrStateResidencyTicks::UNDEFINED  77669299000                       # Cumulative time (in ticks) in various power states
system.cpu.icache.demand_hits::.cpu.inst     57537556                       # number of demand (read+write) hits
system.cpu.icache.demand_hits::total         57537556                       # number of demand (read+write) hits
system.cpu.icache.overall_hits::.cpu.inst     57537556                       # number of overall hits
system.cpu.icache.overall_hits::total        57537556                       # number of overall hits
system.cpu.icache.demand_misses::.cpu.inst          589                       # number of demand (read+write) misses
system.cpu.icache.demand_misses::total            589                       # number of demand (read+write) misses
system.cpu.icache.overall_misses::.cpu.inst          589                       # number of overall misses
system.cpu.icache.overall_misses::total           589                       # number of overall misses
system.cpu.icache.demand_miss_latency::.cpu.inst     34364000                       # number of demand (read+write) miss cycles
system.cpu.icache.demand_miss_latency::total     34364000                       # number of demand (read+write) miss cycles
system.cpu.icache.overall_miss_latency::.cpu.inst     34364000                       # number of overall miss cycles
system.cpu.icache.overall_miss_latency::total     34364000                       # number of overall miss cycles
system.cpu.icache.demand_accesses::.cpu.inst     57538145                       # number of demand (read+write) accesses
system.cpu.icache.demand_accesses::total     57538145                       # number of demand (read+write) accesses
system.cpu.icache.overall_accesses::.cpu.inst     57538145                       # number of overall (read+write) accesses
system.cpu.icache.overall_accesses::total     57538145                       # number of overall (read+write) accesses
system.cpu.icache.demand_miss_rate::.cpu.inst     0.000010                       # miss rate for demand accesses
system.cpu.icache.demand_miss_rate::total     0.000010                       # miss rate for demand accesses
system.cpu.icache.overall_miss_rate::.cpu.inst     0.000010                       # miss rate for overall accesses
system.cpu.icache.overall_miss_rate::total     0.000010                       # miss rate for overall accesses
system.cpu.icache.demand_avg_miss_latency::.cpu.inst 58342.954160                       # average overall miss latency
system.cpu.icache.demand_avg_miss_latency::total 58342.954160                       # average overall miss latency
system.cpu.icache.overall_avg_miss_latency::.cpu.inst 58342.954160                       # average overall miss latency
system.cpu.icache.overall_avg_miss_latency::total 58342.954160                       # average overall miss latency
system.cpu.icache.blocked_cycles::no_mshrs            0                       # number of cycles access was blocked
system.cpu.icache.blocked_cycles::no_targets            0                       # number of cycles access was blocked
system.cpu.icache.blocked::no_mshrs                 0                       # number of cycles access was blocked
system.cpu.icache.blocked::no_targets               0                       # number of cycles access was blocked
system.cpu.icache.avg_blocked_cycles::no_mshrs          nan                       # average number of cycles each access was blocked
system.cpu.icache.avg_blocked_cycles::no_targets          nan                       # average number of cycles each access was blocked
system.cpu.icache.writebacks::.writebacks          340                       # number of writebacks
system.cpu.icache.writebacks::total               340                       # number of writebacks
system.cpu.icache.demand_mshr_misses::.cpu.inst          589                       # number of demand (read+write) MSHR misses
system.cpu.icache.demand_mshr_misses::total          589                       # number of demand (read+write) MSHR misses
system.cpu.icache.overall_mshr_misses::.cpu.inst          589                       # number of overall MSHR misses
system.cpu.icache.overall_mshr_misses::total          589                       # number of overall MSHR misses
system.cpu.icache.demand_mshr_miss_latency::.cpu.inst     33775000                       # number of demand (read+write) MSHR miss cycles
system.cpu.icache.demand_mshr_miss_latency::total     33775000                       # number of demand (read+write) MSHR miss cycles
system.cpu.icache.overall_mshr_miss_latency::.cpu.inst     33775000                       # number of overall MSHR miss cycles
system.cpu.icache.overall_mshr_miss_latency::total     33775000                       # number of overall MSHR miss cycles
system.cpu.icache.demand_mshr_miss_rate::.cpu.inst     0.000010                       # mshr miss rate for demand accesses
system.cpu.icache.demand_mshr_miss_rate::total     0.000010                       # mshr miss rate for demand accesses
system.cpu.icache.overall_mshr_miss_rate::.cpu.inst     0.000010                       # mshr miss rate for overall accesses
system.cpu.icache.overall_mshr_miss_rate::total     0.000010                       # mshr miss rate for overall accesses
system.cpu.icache.demand_avg_mshr_miss_latency::.cpu.inst 57342.954160                       # average overall mshr miss latency
system.cpu.icache.demand_avg_mshr_miss_latency::total 57342.954160                       # average overall mshr miss latency
system.cpu.icache.overall_avg_mshr_miss_latency::.cpu.inst 57342.954160                       # average overall mshr miss latency
system.cpu.icache.overall_avg_mshr_miss_latency::total 57342.954160                       # average overall mshr miss latency
system.cpu.icache.replacements                    340                       # number of replacements
system.cpu.icache.ReadReq_hits::.cpu.inst     57537556                       # number of ReadReq hits
system.cpu.icache.ReadReq_hits::total        57537556                       # number of ReadReq hits
system.cpu.icache.ReadReq_misses::.cpu.inst          589                       # number of ReadReq misses
system.cpu.icache.ReadReq_misses::total           589                       # number of ReadReq misses
system.cpu.icache.ReadReq_miss_latency::.cpu.inst     34364000                       # number of ReadReq miss cycles
system.cpu.icache.ReadReq_miss_latency::total     34364000                       # number of ReadReq miss cycles
system.cpu.icache.ReadReq_accesses::.cpu.inst     57538145                       # number of ReadReq accesses(hits+misses)
system.cpu.icache.ReadReq_accesses::total     57538145                       # number of ReadReq accesses(hits+misses)
system.cpu.icache.ReadReq_miss_rate::.cpu.inst     0.000010                       # miss rate for ReadReq accesses
system.cpu.icache.ReadReq_miss_rate::total     0.000010                       # miss rate for ReadReq accesses
system.cpu.icache.ReadReq_avg_miss_latency::.cpu.inst 58342.954160                       # average ReadReq miss latency
system.cpu.icache.ReadReq_avg_miss_latency::total 58342.954160                       # average ReadReq miss latency
system.cpu.icache.ReadReq_mshr_misses::.cpu.inst          589                       # number of ReadReq MSHR misses
system.cpu.icache.ReadReq_mshr_misses::total          589                       # number of ReadReq MSHR misses
system.cpu.icache.ReadReq_mshr_miss_latency::.cpu.inst     33775000                       # number of ReadReq MSHR miss cycles
system.cpu.icache.ReadReq_mshr_miss_latency::total     33775000                       # number of ReadReq MSHR miss cycles
system.cpu.icache.ReadReq_mshr_miss_rate::.cpu.inst     0.000010                       # mshr miss rate for ReadReq accesses
system.cpu.icache.ReadReq_mshr_miss_rate::total     0.000010                       # mshr miss rate for ReadReq accesses
system.cpu.icache.ReadReq_avg_mshr_miss_latency::.cpu.inst 57342.954160                       # average ReadReq mshr miss latency
system.cpu.icache.ReadReq_avg_mshr_miss_latency::total 57342.954160                       # average ReadReq mshr miss latency
system.cpu.icache.tags.pwrStateResidencyTicks::UNDEFINED  77669299000                       # Cumulative time (in ticks) in various power states
system.cpu.icache.tags.tagsinuse           220.954036                       # Cycle average of tags in use
system.cpu.icache.tags.total_refs            57538145                       # Total number of references to valid blocks.
system.cpu.icache.tags.sampled_refs               589                       # Sample count of references to valid blocks.
system.cpu.icache.tags.avg_refs          97687.852292                       # Average number of references to valid blocks.
system.cpu.icache.tags.warmup_cycle             77000                       # Cycle when the warmup percentage was hit.
system.cpu.icache.tags.occ_blocks::.cpu.inst   220.954036                       # Average occupied blocks per requestor
system.cpu.icache.tags.occ_percent::.cpu.inst     0.863102                       # Average percentage of cache occupancy
system.cpu.icache.tags.occ_percent::total     0.863102                       # Average percentage of cache occupancy
system.cpu.icache.tags.occ_task_id_blocks::1024          249                       # Occupied blocks per task id
system.cpu.icache.tags.age_task_id_blocks_1024::0           78                       # Occupied blocks per task id
system.cpu.icache.tags.age_task_id_blocks_1024::1           84                       # Occupied blocks per task id
system.cpu.icache.tags.age_task_id_blocks_1024::4           87                       # Occupied blocks per task id
system.cpu.icache.tags.occ_task_id_percent::1024     0.972656                       # Percentage of cache occupancy per task id
system.cpu.icache.tags.tag_accesses         115076879                       # Number of tag accesses
system.cpu.icache.tags.data_accesses        115076879                       # Number of data accesses
system.cpu.dtb.walker.pwrStateResidencyTicks::UNDEFINED  77669299000                       # Cumulative time (in ticks) in various power states
system.cpu.interrupts.clk_domain.clock           8000                       # Clock period in ticks
system.cpu.itb_walker_cache.pwrStateResidencyTicks::UNDEFINED  77669299000                       # Cumulative time (in ticks) in various power states
system.cpu.itb_walker_cache.blocked_cycles::no_mshrs            0                       # number of cycles access was blocked
system.cpu.itb_walker_cache.blocked_cycles::no_targets            0                       # number of cycles access was blocked
system.cpu.itb_walker_cache.blocked::no_mshrs            0                       # number of cycles access was blocked
system.cpu.itb_walker_cache.blocked::no_targets            0                       # number of cycles access was blocked
system.cpu.itb_walker_cache.avg_blocked_cycles::no_mshrs          nan                       # average number of cycles each access was blocked
system.cpu.itb_walker_cache.avg_blocked_cycles::no_targets          nan                       # average number of cycles each access was blocked
system.cpu.itb_walker_cache.replacements            0                       # number of replacements
system.cpu.itb_walker_cache.tags.pwrStateResidencyTicks::UNDEFINED  77669299000                       # Cumulative time (in ticks) in various power states
system.cpu.itb_walker_cache.tags.tagsinuse            0                       # Cycle average of tags in use
system.cpu.itb_walker_cache.tags.total_refs            0                       # Total number of references to valid blocks.
system.cpu.itb_walker_cache.tags.sampled_refs            0                       # Sample count of references to valid blocks.
system.cpu.itb_walker_cache.tags.avg_refs          nan                       # Average number of references to valid blocks.
system.cpu.itb_walker_cache.tags.warmup_cycle            0                       # Cycle when the warmup percentage was hit.
system.cpu.itb_walker_cache.tags.tag_accesses            0                       # Number of tag accesses
system.cpu.itb_walker_cache.tags.data_accesses            0                       # Number of data accesses
system.cpu.itb.walker.pwrStateResidencyTicks::UNDEFINED  77669299000                       # Cumulative time (in ticks) in various power states
system.cpu.dtb_walker_cache.pwrStateResidencyTicks::UNDEFINED  77669299000                       # Cumulative time (in ticks) in various power states
system.cpu.dtb_walker_cache.blocked_cycles::no_mshrs            0                       # number of cycles access was blocked
system.cpu.dtb_walker_cache.blocked_cycles::no_targets            0                       # number of cycles access was blocked
system.cpu.dtb_walker_cache.blocked::no_mshrs            0                       # number of cycles access was blocked
system.cpu.dtb_walker_cache.blocked::no_targets            0                       # number of cycles access was blocked
system.cpu.dtb_walker_cache.avg_blocked_cycles::no_mshrs          nan                       # average number of cycles each access was blocked
system.cpu.dtb_walker_cache.avg_blocked_cycles::no_targets          nan                       # average number of cycles each access was blocked
system.cpu.dtb_walker_cache.replacements            0                       # number of replacements
system.cpu.dtb_walker_cache.tags.pwrStateResidencyTicks::UNDEFINED  77669299000                       # Cumulative time (in ticks) in various power states
system.cpu.dtb_walker_cache.tags.tagsinuse            0                       # Cycle average of tags in use
system.cpu.dtb_walker_cache.tags.total_refs            0                       # Total number of references to valid blocks.
system.cpu.dtb_walker_cache.tags.sampled_refs            0                       # Sample count of references to valid blocks.
system.cpu.dtb_walker_cache.tags.avg_refs          nan                       # Average number of references to valid blocks.
system.cpu.dtb_walker_cache.tags.warmup_cycle            0                       # Cycle when the warmup percentage was hit.
system.cpu.dtb_walker_cache.tags.tag_accesses            0                       # Number of tag accesses
system.cpu.dtb_walker_cache.tags.data_accesses            0                       # Number of data accesses
system.cpu.dcache.pwrStateResidencyTicks::UNDEFINED  77669299000                       # Cumulative time (in ticks) in various power states
system.cpu.dcache.demand_hits::.cpu.data     19164980                       # number of demand (read+write) hits
system.cpu.dcache.demand_hits::total         19164980                       # number of demand (read+write) hits
system.cpu.dcache.overall_hits::.cpu.data     19164980                       # number of overall hits
system.cpu.dcache.overall_hits::total        19164980                       # number of overall hits
system.cpu.dcache.demand_misses::.cpu.data        15276                       # number of demand (read+write) misses
system.cpu.dcache.demand_misses::total          15276                       # number of demand (read+write) misses
system.cpu.dcache.overall_misses::.cpu.data        15276                       # number of overall misses
system.cpu.dcache.overall_misses::total         15276                       # number of overall misses
system.cpu.dcache.demand_miss_latency::.cpu.data    930447500                       # number of demand (read+write) miss cycles
system.cpu.dcache.demand_miss_latency::total    930447500                       # number of demand (read+write) miss cycles
system.cpu.dcache.overall_miss_latency::.cpu.data    930447500                       # number of overall miss cycles
system.cpu.dcache.overall_miss_latency::total    930447500                       # number of overall miss cycles
system.cpu.dcache.demand_accesses::.cpu.data     19180256                       # number of demand (read+write) accesses
system.cpu.dcache.demand_accesses::total     19180256                       # number of demand (read+write) accesses
system.cpu.dcache.overall_accesses::.cpu.data     19180256                       # number of overall (read+write) accesses
system.cpu.dcache.overall_accesses::total     19180256                       # number of overall (read+write) accesses
system.cpu.dcache.demand_miss_rate::.cpu.data     0.000796                       # miss rate for demand accesses
system.cpu.dcache.demand_miss_rate::total     0.000796                       # miss rate for demand accesses
system.cpu.dcache.overall_miss_rate::.cpu.data     0.000796                       # miss rate for overall accesses
system.cpu.dcache.overall_miss_rate::total     0.000796                       # miss rate for overall accesses
system.cpu.dcache.demand_avg_miss_latency::.cpu.data 60909.105787                       # average overall miss latency
system.cpu.dcache.demand_avg_miss_latency::total 60909.105787                       # average overall miss latency
system.cpu.dcache.overall_avg_miss_latency::.cpu.data 60909.105787                       # average overall miss latency
system.cpu.dcache.overall_avg_miss_latency::total 60909.105787                       # average overall miss latency
system.cpu.dcache.blocked_cycles::no_mshrs            0                       # number of cycles access was blocked
system.cpu.dcache.blocked_cycles::no_targets            0                       # number of cycles access was blocked
system.cpu.dcache.blocked::no_mshrs                 0                       # number of cycles access was blocked
system.cpu.dcache.blocked::no_targets               0                       # number of cycles access was blocked
system.cpu.dcache.avg_blocked_cycles::no_mshrs          nan                       # average number of cycles each access was blocked
system.cpu.dcache.avg_blocked_cycles::no_targets          nan                       # average number of cycles each access was blocked
system.cpu.dcache.writebacks::.writebacks          489                       # number of writebacks
system.cpu.dcache.writebacks::total               489                       # number of writebacks
system.cpu.dcache.demand_mshr_misses::.cpu.data        15276                       # number of demand (read+write) MSHR misses
system.cpu.dcache.demand_mshr_misses::total        15276                       # number of demand (read+write) MSHR misses
system.cpu.dcache.overall_mshr_misses::.cpu.data        15276                       # number of overall MSHR misses
system.cpu.dcache.overall_mshr_misses::total        15276                       # number of overall MSHR misses
system.cpu.dcache.demand_mshr_miss_latency::.cpu.data    915171500                       # number of demand (read+write) MSHR miss cycles
system.cpu.dcache.demand_mshr_miss_latency::total    915171500                       # number of demand (read+write) MSHR miss cycles
system.cpu.dcache.overall_mshr_miss_latency::.cpu.data    915171500                       # number of overall MSHR miss cycles
system.cpu.dcache.overall_mshr_miss_latency::total    915171500                       # number of overall MSHR miss cycles
system.cpu.dcache.demand_mshr_miss_rate::.cpu.data     0.000796                       # mshr miss rate for demand accesses
system.cpu.dcache.demand_mshr_miss_rate::total     0.000796                       # mshr miss rate for demand accesses
system.cpu.dcache.overall_mshr_miss_rate::.cpu.data     0.000796                       # mshr miss rate for overall accesses
system.cpu.dcache.overall_mshr_miss_rate::total     0.000796                       # mshr miss rate for overall accesses
system.cpu.dcache.demand_avg_mshr_miss_latency::.cpu.data 59909.105787                       # average overall mshr miss latency
system.cpu.dcache.demand_avg_mshr_miss_latency::total 59909.105787                       # average overall mshr miss latency
system.cpu.dcache.overall_avg_mshr_miss_latency::.cpu.data 59909.105787                       # average overall mshr miss latency
system.cpu.dcache.overall_avg_mshr_miss_latency::total 59909.105787                       # average overall mshr miss latency
system.cpu.dcache.replacements                  15148                       # number of replacements
system.cpu.dcache.ReadReq_hits::.cpu.data     13683457                       # number of ReadReq hits
system.cpu.dcache.ReadReq_hits::total        13683457                       # number of ReadReq hits
system.cpu.dcache.ReadReq_misses::.cpu.data        14967                       # number of ReadReq misses
system.cpu.dcache.ReadReq_misses::total         14967                       # number of ReadReq misses
system.cpu.dcache.ReadReq_miss_latency::.cpu.data    918487000                       # number of ReadReq miss cycles
system.cpu.dcache.ReadReq_miss_latency::total    918487000                       # number of ReadReq miss cycles
system.cpu.dcache.ReadReq_accesses::.cpu.data     13698424                       # number of ReadReq accesses(hits+misses)
system.cpu.dcache.ReadReq_accesses::total     13698424                       # number of ReadReq accesses(hits+misses)
system.cpu.dcache.ReadReq_miss_rate::.cpu.data     0.001093                       # miss rate for ReadReq accesses
system.cpu.dcache.ReadReq_miss_rate::total     0.001093                       # miss rate for ReadReq accesses
system.cpu.dcache.ReadReq_avg_miss_latency::.cpu.data 61367.475112                       # average ReadReq miss latency
system.cpu.dcache.ReadReq_avg_miss_latency::total 61367.475112                       # average ReadReq miss latency
system.cpu.dcache.ReadReq_mshr_misses::.cpu.data        14967                       # number of ReadReq MSHR misses
system.cpu.dcache.ReadReq_mshr_misses::total        14967                       # number of ReadReq MSHR misses
system.cpu.dcache.ReadReq_mshr_miss_latency::.cpu.data    903520000                       # number of ReadReq MSHR miss cycles
system.cpu.dcache.ReadReq_mshr_miss_latency::total    903520000                       # number of ReadReq MSHR miss cycles
system.cpu.dcache.ReadReq_mshr_miss_rate::.cpu.data     0.001093                       # mshr miss rate for ReadReq accesses
system.cpu.dcache.ReadReq_mshr_miss_rate::total     0.001093                       # mshr miss rate for ReadReq accesses
system.cpu.dcache.ReadReq_avg_mshr_miss_latency::.cpu.data 60367.475112                       # average ReadReq mshr miss latency
system.cpu.dcache.ReadReq_avg_mshr_miss_latency::total 60367.475112                       # average ReadReq mshr miss latency
system.cpu.dcache.WriteReq_hits::.cpu.data      5481523                       # number of WriteReq hits
system.cpu.dcache.WriteReq_hits::total        5481523                       # number of WriteReq hits
system.cpu.dcache.WriteReq_misses::.cpu.data          309                       # number of WriteReq misses
system.cpu.dcache.WriteReq_misses::total          309                       # number of WriteReq misses
system.cpu.dcache.WriteReq_miss_latency::.cpu.data     11960500                       # number of WriteReq miss cycles
system.cpu.dcache.WriteReq_miss_latency::total     11960500                       # number of WriteReq miss cycles
system.cpu.dcache.WriteReq_accesses::.cpu.data      5481832                       # number of WriteReq accesses(hits+misses)
system.cpu.dcache.WriteReq_accesses::total      5481832                       # number of WriteReq accesses(hits+misses)
system.cpu.dcache.WriteReq_miss_rate::.cpu.data     0.000056                       # miss rate for WriteReq accesses
system.cpu.dcache.WriteReq_miss_rate::total     0.000056                       # miss rate for WriteReq accesses
system.cpu.dcache.WriteReq_avg_miss_latency::.cpu.data 38707.119741                       # average WriteReq miss latency
system.cpu.dcache.WriteReq_avg_miss_latency::total 38707.119741                       # average WriteReq miss latency
system.cpu.dcache.WriteReq_mshr_misses::.cpu.data          309                       # number of WriteReq MSHR misses
system.cpu.dcache.WriteReq_mshr_misses::total          309                       # number of WriteReq MSHR misses
system.cpu.dcache.WriteReq_mshr_miss_latency::.cpu.data     11651500                       # number of WriteReq MSHR miss cycles
system.cpu.dcache.WriteReq_mshr_miss_latency::total     11651500                       # number of WriteReq MSHR miss cycles
system.cpu.dcache.WriteReq_mshr_miss_rate::.cpu.data     0.000056                       # mshr miss rate for WriteReq accesses
system.cpu.dcache.WriteReq_mshr_miss_rate::total     0.000056                       # mshr miss rate for WriteReq accesses
system.cpu.dcache.WriteReq_avg_mshr_miss_latency::.cpu.data 37707.119741                       # average WriteReq mshr miss latency
system.cpu.dcache.WriteReq_avg_mshr_miss_latency::total 37707.119741                       # average WriteReq mshr miss latency
system.cpu.dcache.tags.pwrStateResidencyTicks::UNDEFINED  77669299000                       # Cumulative time (in ticks) in various power states
system.cpu.dcache.tags.tagsinuse           127.969139                       # Cycle average of tags in use
system.cpu.dcache.tags.total_refs            19180256                       # Total number of references to valid blocks.
system.cpu.dcache.tags.sampled_refs             15276                       # Sample count of references to valid blocks.
system.cpu.dcache.tags.avg_refs           1255.581042                       # Average number of references to valid blocks.
system.cpu.dcache.tags.warmup_cycle            148000                       # Cycle when the warmup percentage was hit.
system.cpu.dcache.tags.occ_blocks::.cpu.data   127.969139                       # Average occupied blocks per requestor
system.cpu.dcache.tags.occ_percent::.cpu.data     0.999759                       # Average percentage of cache occupancy
system.cpu.dcache.tags.occ_percent::total     0.999759                       # Average percentage of cache occupancy
system.cpu.dcache.tags.occ_task_id_blocks::1024          128                       # Occupied blocks per task id
system.cpu.dcache.tags.age_task_id_blocks_1024::0           24                       # Occupied blocks per task id
system.cpu.dcache.tags.age_task_id_blocks_1024::1           51                       # Occupied blocks per task id
system.cpu.dcache.tags.age_task_id_blocks_1024::2            9                       # Occupied blocks per task id
system.cpu.dcache.tags.age_task_id_blocks_1024::4           44                       # Occupied blocks per task id
system.cpu.dcache.tags.occ_task_id_percent::1024            1                       # Percentage of cache occupancy per task id
system.cpu.dcache.tags.tag_accesses          38375788                       # Number of tag accesses
system.cpu.dcache.tags.data_accesses         38375788                       # Number of data accesses

---------- End Simulation Statistics   ----------
